data_image0
_chemical_formula_structural       O2C3HCHCHCHC4HCHO2C3H3CO2C3HCHCHCHCO2C3HCHCHCHO2C3HCHCHCOCOC4HCHCHCHO2C3HCHCHCHCO2C3HCHCHCHCO2C3HCHCHCHCO2C3HCHCHCHCO2C3HCHCHCHCO2C3HCHCHCHCO3C3HCHCHCHC4HCHC3OH2O2C3HCHCHCHCO2C3HCHCHCHCHO2C3HCHCHCOCOC3HCHC2HCH2CHCO2C3HCHCHCHCO2C3HCHCO2C3HCHCHCHCO2C3HCHCHCHCO2C3HCHCHCHCO2C3HCHCHCHC4HCHSO3COCSO3COC4HCHCHSO3COC4HSO3COC4HCHSO3COC4HCHO3COC4HCHS2O3COC4HCHOC4HCHSO3CSO3COC4HCHCHCHSO3COC3SO3COC4HCHSO3COC4HCHIn12
_chemical_formula_sum              "O96 C240 H120 S12 In12"
_cell_length_a       25.098
_cell_length_b       25.098
_cell_length_c       28.4464
_cell_angle_alpha    90
_cell_angle_beta     90
_cell_angle_gamma    120

_space_group_name_H-M_alt    "P 1"
_space_group_IT_number       1

loop_
  _space_group_symop_operation_xyz
  'x, y, z'

loop_
  _atom_site_type_symbol
  _atom_site_label
  _atom_site_symmetry_multiplicity
  _atom_site_fract_x
  _atom_site_fract_y
  _atom_site_fract_z
  _atom_site_occupancy
  O   O1        1.0  0.69687  0.16153  0.07891  1.0000
  O   O2        1.0  0.63641  0.19327  0.05136  1.0000
  C   C1        1.0  0.66075  0.18251  0.08539  1.0000
  C   C2        1.0  0.64650  0.19340  0.13425  1.0000
  C   C3        1.0  0.67330  0.18140  0.17242  1.0000
  H   H1        1.0  0.70240  0.16930  0.16760  1.0000
  C   C4        1.0  0.60640  0.21480  0.14190  1.0000
  H   H2        1.0  0.58990  0.22500  0.11650  1.0000
  C   C5        1.0  0.65630  0.18740  0.21798  1.0000
  H   H3        1.0  0.67370  0.17850  0.24350  1.0000
  C   C6        1.0  0.59040  0.22130  0.18737  1.0000
  H   H4        1.0  0.56320  0.23580  0.19210  1.0000
  C   C7        1.0  0.61420  0.20650  0.22557  1.0000
  C   C8        1.0  0.53110  0.18740  0.28202  1.0000
  C   C9        1.0  0.59230  0.20650  0.27443  1.0000
  C   C10       1.0  0.63090  0.22130  0.31263  1.0000
  H   H5        1.0  0.50480  0.17850  0.25650  1.0000
  C   C11       1.0  0.60840  0.21480  0.35810  1.0000
  H   H6        1.0  0.67260  0.23580  0.30790  1.0000
  O   O3        1.0  0.46466  0.16153  0.42109  1.0000
  O   O4        1.0  0.55686  0.19327  0.44864  1.0000
  C   C12       1.0  0.52176  0.18251  0.41461  1.0000
  C   C13       1.0  0.54690  0.19340  0.36575  1.0000
  C   C14       1.0  0.50810  0.18140  0.32758  1.0000
  H   H7        1.0  0.46690  0.16930  0.33240  1.0000
  H   H8        1.0  0.63510  0.22500  0.38350  1.0000
  H   H9        1.0  0.76420  0.43680  0.30790  1.0000
  C   C15       1.0  0.79350  0.38580  0.27443  1.0000
  O   O5        1.0  0.83847  0.53534  0.07891  1.0000
  O   O6        1.0  0.80673  0.44314  0.05136  1.0000
  C   C16       1.0  0.81749  0.47824  0.08539  1.0000
  C   C17       1.0  0.80660  0.45310  0.13425  1.0000
  C   C18       1.0  0.81860  0.49190  0.17242  1.0000
  H   H10       1.0  0.83070  0.53310  0.16760  1.0000
  C   C19       1.0  0.78520  0.39160  0.14190  1.0000
  H   H11       1.0  0.77500  0.36490  0.11650  1.0000
  C   C20       1.0  0.81260  0.46890  0.21798  1.0000
  H   H12       1.0  0.82150  0.49520  0.24350  1.0000
  C   C21       1.0  0.77870  0.36910  0.18737  1.0000
  H   H13       1.0  0.76420  0.32740  0.19210  1.0000
  C   C22       1.0  0.79350  0.40770  0.22557  1.0000
  O   O7        1.0  0.83847  0.30313  0.42109  1.0000
  O   O8        1.0  0.80673  0.36359  0.44864  1.0000
  C   C23       1.0  0.81749  0.33925  0.41461  1.0000
  C   C24       1.0  0.80660  0.35350  0.36575  1.0000
  C   C25       1.0  0.81860  0.32670  0.32758  1.0000
  H   H14       1.0  0.83070  0.29760  0.33240  1.0000
  C   C26       1.0  0.78520  0.39360  0.35810  1.0000
  H   H15       1.0  0.77500  0.41010  0.38350  1.0000
  C   C27       1.0  0.81260  0.34370  0.28202  1.0000
  H   H16       1.0  0.82150  0.32630  0.25650  1.0000
  C   C28       1.0  0.77870  0.40960  0.31263  1.0000
  H   H17       1.0  0.56320  0.32740  0.30790  1.0000
  O   O9        1.0  0.69687  0.53534  0.42109  1.0000
  O   O10       1.0  0.63641  0.44314  0.44864  1.0000
  C   C29       1.0  0.66075  0.47824  0.41461  1.0000
  C   C30       1.0  0.64650  0.45310  0.36575  1.0000
  C   C31       1.0  0.67330  0.49190  0.32758  1.0000
  H   H18       1.0  0.70240  0.53310  0.33240  1.0000
  C   C32       1.0  0.60640  0.39160  0.35810  1.0000
  H   H19       1.0  0.58990  0.36490  0.38350  1.0000
  C   C33       1.0  0.65630  0.46890  0.28202  1.0000
  H   H20       1.0  0.67370  0.49520  0.25650  1.0000
  C   C34       1.0  0.59040  0.36910  0.31263  1.0000
  O   O11       1.0  0.46466  0.30313  0.07891  1.0000
  C   C35       1.0  0.61420  0.40770  0.27443  1.0000
  O   O12       1.0  0.55686  0.36359  0.05136  1.0000
  C   C36       1.0  0.52176  0.33925  0.08539  1.0000
  C   C37       1.0  0.54690  0.35350  0.13425  1.0000
  C   C38       1.0  0.50810  0.32670  0.17242  1.0000
  C   C39       1.0  0.60840  0.39360  0.14190  1.0000
  H   H21       1.0  0.63510  0.41010  0.11650  1.0000
  C   C40       1.0  0.53110  0.34370  0.21798  1.0000
  H   H22       1.0  0.50480  0.32630  0.24350  1.0000
  C   C41       1.0  0.63090  0.40960  0.18737  1.0000
  H   H23       1.0  0.67260  0.43680  0.19210  1.0000
  C   C42       1.0  0.59230  0.38580  0.22557  1.0000
  H   H24       1.0  0.46690  0.29760  0.16760  1.0000
  O   O13       1.0  0.30313  0.83847  0.07891  1.0000
  O   O14       1.0  0.36359  0.80673  0.05136  1.0000
  C   C43       1.0  0.33925  0.81749  0.08539  1.0000
  C   C44       1.0  0.35350  0.80660  0.13425  1.0000
  C   C45       1.0  0.32670  0.81860  0.17242  1.0000
  H   H25       1.0  0.29760  0.83070  0.16760  1.0000
  C   C46       1.0  0.39360  0.78520  0.14190  1.0000
  H   H26       1.0  0.41010  0.77500  0.11650  1.0000
  C   C47       1.0  0.34370  0.81260  0.21798  1.0000
  H   H27       1.0  0.32630  0.82150  0.24350  1.0000
  C   C48       1.0  0.40960  0.77870  0.18737  1.0000
  H   H28       1.0  0.43680  0.76420  0.19210  1.0000
  C   C49       1.0  0.38580  0.79350  0.22557  1.0000
  O   O15       1.0  0.53534  0.83847  0.42109  1.0000
  O   O16       1.0  0.44314  0.80673  0.44864  1.0000
  C   C50       1.0  0.47824  0.81749  0.41461  1.0000
  C   C51       1.0  0.45310  0.80660  0.36575  1.0000
  C   C52       1.0  0.49190  0.81860  0.32758  1.0000
  H   H29       1.0  0.53310  0.83070  0.33240  1.0000
  C   C53       1.0  0.39160  0.78520  0.35810  1.0000
  H   H30       1.0  0.36490  0.77500  0.38350  1.0000
  C   C54       1.0  0.46890  0.81260  0.28202  1.0000
  H   H31       1.0  0.49520  0.82150  0.25650  1.0000
  C   C55       1.0  0.36910  0.77870  0.31263  1.0000
  H   H32       1.0  0.32740  0.76420  0.30790  1.0000
  C   C56       1.0  0.40770  0.79350  0.27443  1.0000
  O   O17       1.0  0.16153  0.46466  0.07891  1.0000
  O   O18       1.0  0.19327  0.55686  0.05136  1.0000
  C   C57       1.0  0.18251  0.52176  0.08539  1.0000
  C   C58       1.0  0.19340  0.54690  0.13425  1.0000
  C   C59       1.0  0.18140  0.50810  0.17242  1.0000
  H   H33       1.0  0.16930  0.46690  0.16760  1.0000
  C   C60       1.0  0.21480  0.60840  0.14190  1.0000
  H   H34       1.0  0.22500  0.63510  0.11650  1.0000
  C   C61       1.0  0.18740  0.53110  0.21798  1.0000
  H   H35       1.0  0.17850  0.50480  0.24350  1.0000
  C   C62       1.0  0.22130  0.63090  0.18737  1.0000
  H   H36       1.0  0.23580  0.67260  0.19210  1.0000
  C   C63       1.0  0.20650  0.59230  0.22557  1.0000
  O   O19       1.0  0.16153  0.69687  0.42109  1.0000
  O   O20       1.0  0.19327  0.63641  0.44864  1.0000
  C   C64       1.0  0.18251  0.66075  0.41461  1.0000
  C   C65       1.0  0.19340  0.64650  0.36575  1.0000
  C   C66       1.0  0.18140  0.67330  0.32758  1.0000
  H   H37       1.0  0.16930  0.70240  0.33240  1.0000
  C   C67       1.0  0.21480  0.60640  0.35810  1.0000
  H   H38       1.0  0.22500  0.58990  0.38350  1.0000
  C   C68       1.0  0.18740  0.65630  0.28202  1.0000
  H   H39       1.0  0.17850  0.67370  0.25650  1.0000
  C   C69       1.0  0.22130  0.59040  0.31263  1.0000
  H   H40       1.0  0.23580  0.56320  0.30790  1.0000
  C   C70       1.0  0.20650  0.61420  0.27443  1.0000
  O   O21       1.0  0.53534  0.69687  0.07891  1.0000
  O   O22       1.0  0.44314  0.63641  0.05136  1.0000
  C   C71       1.0  0.47824  0.66075  0.08539  1.0000
  C   C72       1.0  0.45310  0.64650  0.13425  1.0000
  C   C73       1.0  0.49190  0.67330  0.17242  1.0000
  H   H41       1.0  0.53310  0.70240  0.16760  1.0000
  C   C74       1.0  0.39160  0.60640  0.14190  1.0000
  H   H42       1.0  0.36490  0.58990  0.11650  1.0000
  C   C75       1.0  0.46890  0.65630  0.21798  1.0000
  H   H43       1.0  0.49520  0.67370  0.24350  1.0000
  C   C76       1.0  0.36910  0.59040  0.18737  1.0000
  H   H44       1.0  0.32740  0.56320  0.19210  1.0000
  C   C77       1.0  0.40770  0.61420  0.22557  1.0000
  O   O23       1.0  0.30313  0.46466  0.42109  1.0000
  O   O24       1.0  0.36359  0.55686  0.44864  1.0000
  C   C78       1.0  0.33925  0.52176  0.41461  1.0000
  C   C79       1.0  0.35350  0.54690  0.36575  1.0000
  C   C80       1.0  0.32670  0.50810  0.32758  1.0000
  H   H45       1.0  0.29760  0.46690  0.33240  1.0000
  C   C81       1.0  0.39360  0.60840  0.35810  1.0000
  H   H46       1.0  0.41010  0.63510  0.38350  1.0000
  C   C82       1.0  0.34370  0.53110  0.28202  1.0000
  H   H47       1.0  0.32630  0.50480  0.25650  1.0000
  C   C83       1.0  0.40960  0.63090  0.31263  1.0000
  H   H48       1.0  0.43680  0.67260  0.30790  1.0000
  C   C84       1.0  0.38580  0.59230  0.27443  1.0000
  O   O25       1.0  0.53534  0.83847  0.57891  1.0000
  O   O26       1.0  0.30313  0.83847  0.92109  1.0000
  O   O27       1.0  0.36359  0.80673  0.94864  1.0000
  C   C85       1.0  0.33925  0.81749  0.91461  1.0000
  C   C86       1.0  0.35350  0.80660  0.86575  1.0000
  C   C87       1.0  0.32670  0.81860  0.82758  1.0000
  H   H49       1.0  0.29760  0.83070  0.83240  1.0000
  C   C88       1.0  0.39360  0.78520  0.85810  1.0000
  H   H50       1.0  0.41010  0.77500  0.88350  1.0000
  C   C89       1.0  0.34370  0.81260  0.78202  1.0000
  H   H51       1.0  0.32630  0.82150  0.75650  1.0000
  C   C90       1.0  0.40960  0.77870  0.81263  1.0000
  H   H52       1.0  0.43680  0.76420  0.80790  1.0000
  C   C91       1.0  0.38580  0.79350  0.77443  1.0000
  C   C92       1.0  0.46890  0.81260  0.71798  1.0000
  C   C93       1.0  0.40770  0.79350  0.72557  1.0000
  C   C94       1.0  0.36910  0.77870  0.68737  1.0000
  H   H53       1.0  0.49520  0.82150  0.74350  1.0000
  C   C95       1.0  0.39160  0.78520  0.64190  1.0000
  H   H54       1.0  0.32740  0.76420  0.69210  1.0000
  C   C96       1.0  0.45310  0.80660  0.63425  1.0000
  C   C97       1.0  0.47824  0.81749  0.58539  1.0000
  C   C98       1.0  0.49190  0.81860  0.67242  1.0000
  O   O28       1.0  0.44314  0.80673  0.55136  1.0000
  H   H55       1.0  0.53310  0.83070  0.66760  1.0000
  H   H56       1.0  0.36490  0.77500  0.61650  1.0000
  O   O29       1.0  0.16153  0.69687  0.57891  1.0000
  O   O30       1.0  0.19327  0.63641  0.55136  1.0000
  C   C99       1.0  0.18251  0.66075  0.58539  1.0000
  C   C100      1.0  0.19340  0.64650  0.63425  1.0000
  C   C101      1.0  0.18140  0.67330  0.67242  1.0000
  H   H57       1.0  0.16930  0.70240  0.66760  1.0000
  C   C102      1.0  0.21480  0.60640  0.64190  1.0000
  H   H58       1.0  0.22500  0.58990  0.61650  1.0000
  C   C103      1.0  0.18740  0.65630  0.71798  1.0000
  H   H59       1.0  0.17850  0.67370  0.74350  1.0000
  C   C104      1.0  0.22130  0.59040  0.68737  1.0000
  H   H60       1.0  0.23580  0.56320  0.69210  1.0000
  C   C105      1.0  0.20650  0.61420  0.72557  1.0000
  O   O31       1.0  0.16153  0.46466  0.92109  1.0000
  O   O32       1.0  0.19327  0.55686  0.94864  1.0000
  C   C106      1.0  0.18251  0.52176  0.91461  1.0000
  C   C107      1.0  0.19340  0.54690  0.86575  1.0000
  C   C108      1.0  0.18140  0.50810  0.82758  1.0000
  H   H61       1.0  0.16930  0.46690  0.83240  1.0000
  C   C109      1.0  0.21480  0.60840  0.85810  1.0000
  H   H62       1.0  0.22500  0.63510  0.88350  1.0000
  C   C110      1.0  0.18740  0.53110  0.78202  1.0000
  H   H63       1.0  0.17850  0.50480  0.75650  1.0000
  C   C111      1.0  0.22130  0.63090  0.81263  1.0000
  H   H64       1.0  0.23580  0.67260  0.80790  1.0000
  C   C112      1.0  0.20650  0.59230  0.77443  1.0000
  H   H65       1.0  0.43680  0.67260  0.69210  1.0000
  O   O33       1.0  0.30313  0.46466  0.57891  1.0000
  O   O34       1.0  0.36359  0.55686  0.55136  1.0000
  C   C113      1.0  0.33925  0.52176  0.58539  1.0000
  C   C114      1.0  0.35350  0.54690  0.63425  1.0000
  C   C115      1.0  0.32670  0.50810  0.67242  1.0000
  H   H66       1.0  0.29760  0.46690  0.66760  1.0000
  C   C116      1.0  0.39360  0.60840  0.64190  1.0000
  H   H67       1.0  0.41010  0.63510  0.61650  1.0000
  C   C117      1.0  0.34370  0.53110  0.71798  1.0000
  H   H68       1.0  0.32630  0.50480  0.74350  1.0000
  C   C118      1.0  0.40960  0.63090  0.68737  1.0000
  O   O35       1.0  0.53534  0.69687  0.92109  1.0000
  C   C119      1.0  0.38580  0.59230  0.72557  1.0000
  O   O36       1.0  0.44314  0.63641  0.94864  1.0000
  C   C120      1.0  0.47824  0.66075  0.91461  1.0000
  C   C121      1.0  0.45310  0.64650  0.86575  1.0000
  C   C122      1.0  0.49190  0.67330  0.82758  1.0000
  H   H69       1.0  0.53310  0.70240  0.83240  1.0000
  C   C123      1.0  0.39160  0.60640  0.85810  1.0000
  H   H70       1.0  0.36490  0.58990  0.88350  1.0000
  C   C124      1.0  0.46890  0.65630  0.78202  1.0000
  C   C125      1.0  0.36910  0.59040  0.81263  1.0000
  H   H71       1.0  0.32740  0.56320  0.80790  1.0000
  C   C126      1.0  0.40770  0.61420  0.77443  1.0000
  H   H72       1.0  0.49520  0.67370  0.75650  1.0000
  H   H73       1.0  0.50480  0.17850  0.74350  1.0000
  C   C127      1.0  0.63090  0.22130  0.68737  1.0000
  H   H74       1.0  0.67260  0.23580  0.69210  1.0000
  C   C128      1.0  0.59230  0.20650  0.72557  1.0000
  O   O37       1.0  0.69687  0.16153  0.92109  1.0000
  O   O38       1.0  0.63641  0.19327  0.94864  1.0000
  C   C129      1.0  0.66075  0.18251  0.91461  1.0000
  C   C130      1.0  0.64650  0.19340  0.86575  1.0000
  C   C131      1.0  0.67330  0.18140  0.82758  1.0000
  H   H75       1.0  0.70240  0.16930  0.83240  1.0000
  C   C132      1.0  0.60640  0.21480  0.85810  1.0000
  H   H76       1.0  0.58990  0.22500  0.88350  1.0000
  C   C133      1.0  0.65630  0.18740  0.78202  1.0000
  H   H77       1.0  0.67370  0.17850  0.75650  1.0000
  C   C134      1.0  0.59040  0.22130  0.81263  1.0000
  H   H78       1.0  0.56320  0.23580  0.80790  1.0000
  C   C135      1.0  0.61420  0.20650  0.77443  1.0000
  O   O39       1.0  0.46466  0.16153  0.57891  1.0000
  O   O40       1.0  0.55686  0.19327  0.55136  1.0000
  C   C136      1.0  0.52176  0.18251  0.58539  1.0000
  C   C137      1.0  0.54690  0.19340  0.63425  1.0000
  C   C138      1.0  0.50810  0.18140  0.67242  1.0000
  H   H79       1.0  0.46690  0.16930  0.66760  1.0000
  C   C139      1.0  0.60840  0.21480  0.64190  1.0000
  H   H80       1.0  0.63510  0.22500  0.61650  1.0000
  C   C140      1.0  0.53110  0.18740  0.71798  1.0000
  O   O41       1.0  0.83847  0.53534  0.92109  1.0000
  O   O42       1.0  0.80673  0.44314  0.94864  1.0000
  C   C141      1.0  0.81749  0.47824  0.91461  1.0000
  C   C142      1.0  0.80660  0.45310  0.86575  1.0000
  C   C143      1.0  0.81860  0.49190  0.82758  1.0000
  H   H81       1.0  0.83070  0.53310  0.83240  1.0000
  C   C144      1.0  0.78520  0.39160  0.85810  1.0000
  H   H82       1.0  0.77500  0.36490  0.88350  1.0000
  C   C145      1.0  0.81260  0.46890  0.78202  1.0000
  H   H83       1.0  0.82150  0.49520  0.75650  1.0000
  C   C146      1.0  0.77870  0.36910  0.81263  1.0000
  H   H84       1.0  0.76420  0.32740  0.80790  1.0000
  C   C147      1.0  0.79350  0.40770  0.77443  1.0000
  O   O43       1.0  0.83847  0.30313  0.57891  1.0000
  O   O44       1.0  0.80673  0.36359  0.55136  1.0000
  C   C148      1.0  0.81749  0.33925  0.58539  1.0000
  C   C149      1.0  0.80660  0.35350  0.63425  1.0000
  C   C150      1.0  0.81860  0.32670  0.67242  1.0000
  H   H85       1.0  0.83070  0.29760  0.66760  1.0000
  C   C151      1.0  0.78520  0.39360  0.64190  1.0000
  H   H86       1.0  0.77500  0.41010  0.61650  1.0000
  C   C152      1.0  0.81260  0.34370  0.71798  1.0000
  H   H87       1.0  0.82150  0.32630  0.74350  1.0000
  C   C153      1.0  0.77870  0.40960  0.68737  1.0000
  H   H88       1.0  0.76420  0.43680  0.69210  1.0000
  C   C154      1.0  0.79350  0.38580  0.72557  1.0000
  O   O45       1.0  0.69687  0.53534  0.57891  1.0000
  O   O46       1.0  0.63641  0.44314  0.55136  1.0000
  C   C155      1.0  0.66075  0.47824  0.58539  1.0000
  C   C156      1.0  0.64650  0.45310  0.63425  1.0000
  C   C157      1.0  0.67330  0.49190  0.67242  1.0000
  H   H89       1.0  0.70240  0.53310  0.66760  1.0000
  C   C158      1.0  0.60640  0.39160  0.64190  1.0000
  H   H90       1.0  0.58990  0.36490  0.61650  1.0000
  C   C159      1.0  0.65630  0.46890  0.71798  1.0000
  H   H91       1.0  0.67370  0.49520  0.74350  1.0000
  C   C160      1.0  0.59040  0.36910  0.68737  1.0000
  H   H92       1.0  0.56320  0.32740  0.69210  1.0000
  C   C161      1.0  0.61420  0.40770  0.72557  1.0000
  O   O47       1.0  0.46466  0.30313  0.92109  1.0000
  O   O48       1.0  0.55686  0.36359  0.94864  1.0000
  C   C162      1.0  0.52176  0.33925  0.91461  1.0000
  C   C163      1.0  0.54690  0.35350  0.86575  1.0000
  C   C164      1.0  0.50810  0.32670  0.82758  1.0000
  H   H93       1.0  0.46690  0.29760  0.83240  1.0000
  C   C165      1.0  0.60840  0.39360  0.85810  1.0000
  H   H94       1.0  0.63510  0.41010  0.88350  1.0000
  C   C166      1.0  0.53110  0.34370  0.78202  1.0000
  H   H95       1.0  0.50480  0.32630  0.75650  1.0000
  C   C167      1.0  0.63090  0.40960  0.81263  1.0000
  H   H96       1.0  0.67260  0.43680  0.80790  1.0000
  C   C168      1.0  0.59230  0.38580  0.77443  1.0000
  C   C169      1.0  0.97450  0.38100  0.00000  1.0000
  C   C170      1.0  0.04160  0.41200  0.00000  1.0000
  C   C171      1.0  0.87750  0.36910  0.00000  1.0000
  H   H97       1.0  0.84810  0.38140  0.00000  1.0000
  C   C172      1.0  0.93970  0.40940  0.00000  1.0000
  H   H98       1.0  0.95680  0.45190  0.00000  1.0000
  S   S1        1.0  0.92813  0.30318  0.00000  1.0000
  O   O49       1.0  0.06868  0.38132  0.00000  1.0000
  O   O50       1.0  0.79306  0.20203  0.00000  1.0000
  O   O51       1.0  0.07237  0.47008  0.00000  1.0000
  C   C173      1.0  0.80100  0.25540  0.00000  1.0000
  O   O52       1.0  0.75612  0.26424  0.00000  1.0000
  C   C174      1.0  0.86340  0.30970  0.00000  1.0000
  S   S2        1.0  0.69682  0.62495  0.00000  1.0000
  O   O53       1.0  0.61868  0.68736  0.00000  1.0000
  O   O54       1.0  0.79797  0.59103  0.00000  1.0000
  O   O55       1.0  0.52992  0.60229  0.00000  1.0000
  C   C175      1.0  0.74460  0.54560  0.00000  1.0000
  O   O56       1.0  0.73576  0.49188  0.00000  1.0000
  C   C176      1.0  0.69030  0.55370  0.00000  1.0000
  C   C177      1.0  0.61900  0.59350  0.00000  1.0000
  C   C178      1.0  0.58800  0.62960  0.00000  1.0000
  C   C179      1.0  0.63090  0.50840  0.00000  1.0000
  H   H99       1.0  0.61860  0.46670  0.00000  1.0000
  C   C180      1.0  0.59060  0.53030  0.00000  1.0000
  H   H100      1.0  0.54810  0.50490  0.00000  1.0000
  C   C181      1.0  0.46970  0.06030  0.00000  1.0000
  H   H101      1.0  0.49510  0.04320  0.00000  1.0000
  S   S3        1.0  0.37505  0.07187  0.00000  1.0000
  O   O57       1.0  0.31264  0.93132  0.00000  1.0000
  O   O58       1.0  0.40897  0.20694  0.00000  1.0000
  O   O59       1.0  0.39771  0.92763  0.00000  1.0000
  C   C182      1.0  0.45440  0.19900  0.00000  1.0000
  O   O60       1.0  0.50812  0.24388  0.00000  1.0000
  C   C183      1.0  0.44630  0.13660  0.00000  1.0000
  C   C184      1.0  0.40650  0.02550  0.00000  1.0000
  C   C185      1.0  0.37040  0.95840  0.00000  1.0000
  C   C186      1.0  0.49160  0.12250  0.00000  1.0000
  H   H102      1.0  0.53330  0.15190  0.00000  1.0000
  S   S4        1.0  0.07187  0.69682  0.00000  1.0000
  O   O61       1.0  0.93132  0.61868  0.00000  1.0000
  O   O62       1.0  0.20694  0.79797  0.00000  1.0000
  O   O63       1.0  0.92763  0.52992  0.00000  1.0000
  C   C187      1.0  0.19900  0.74460  0.00000  1.0000
  O   O64       1.0  0.24388  0.73576  0.00000  1.0000
  C   C188      1.0  0.13660  0.69030  0.00000  1.0000
  C   C189      1.0  0.02550  0.61900  0.00000  1.0000
  C   C190      1.0  0.95840  0.58800  0.00000  1.0000
  C   C191      1.0  0.12250  0.63090  0.00000  1.0000
  H   H103      1.0  0.15190  0.61860  0.00000  1.0000
  C   C192      1.0  0.06030  0.59060  0.00000  1.0000
  H   H104      1.0  0.04320  0.54810  0.00000  1.0000
  S   S5        1.0  0.30318  0.37505  0.00000  1.0000
  O   O65       1.0  0.38132  0.31264  0.00000  1.0000
  O   O66       1.0  0.20203  0.40897  0.00000  1.0000
  O   O67       1.0  0.47008  0.39771  0.00000  1.0000
  C   C193      1.0  0.25540  0.45440  0.00000  1.0000
  O   O68       1.0  0.26424  0.50812  0.00000  1.0000
  C   C194      1.0  0.30970  0.44630  0.00000  1.0000
  C   C195      1.0  0.38100  0.40650  0.00000  1.0000
  C   C196      1.0  0.41200  0.37040  0.00000  1.0000
  C   C197      1.0  0.36910  0.49160  0.00000  1.0000
  H   H105      1.0  0.38140  0.53330  0.00000  1.0000
  C   C198      1.0  0.40940  0.46970  0.00000  1.0000
  H   H106      1.0  0.45190  0.49510  0.00000  1.0000
  O   O69       1.0  0.68736  0.06868  0.00000  1.0000
  O   O70       1.0  0.59103  0.79306  0.00000  1.0000
  O   O71       1.0  0.60229  0.07237  0.00000  1.0000
  C   C199      1.0  0.54560  0.80100  0.00000  1.0000
  O   O72       1.0  0.49188  0.75612  0.00000  1.0000
  C   C200      1.0  0.55370  0.86340  0.00000  1.0000
  C   C201      1.0  0.59350  0.97450  0.00000  1.0000
  C   C202      1.0  0.62960  0.04160  0.00000  1.0000
  C   C203      1.0  0.50840  0.87750  0.00000  1.0000
  H   H107      1.0  0.46670  0.84810  0.00000  1.0000
  C   C204      1.0  0.53030  0.93970  0.00000  1.0000
  H   H108      1.0  0.50490  0.95680  0.00000  1.0000
  S   S6        1.0  0.62495  0.92813  0.00000  1.0000
  S   S7        1.0  0.30318  0.92813  0.50000  1.0000
  O   O73       1.0  0.38132  0.06868  0.50000  1.0000
  O   O74       1.0  0.20203  0.79306  0.50000  1.0000
  O   O75       1.0  0.47008  0.07237  0.50000  1.0000
  C   C205      1.0  0.25540  0.80100  0.50000  1.0000
  O   O76       1.0  0.26424  0.75612  0.50000  1.0000
  C   C206      1.0  0.30970  0.86340  0.50000  1.0000
  C   C207      1.0  0.38100  0.97450  0.50000  1.0000
  C   C208      1.0  0.41200  0.04160  0.50000  1.0000
  C   C209      1.0  0.36910  0.87750  0.50000  1.0000
  H   H109      1.0  0.38140  0.84810  0.50000  1.0000
  C   C210      1.0  0.40940  0.93970  0.50000  1.0000
  H   H110      1.0  0.45190  0.95680  0.50000  1.0000
  O   O77       1.0  0.49188  0.73576  0.50000  1.0000
  C   C211      1.0  0.55370  0.69030  0.50000  1.0000
  C   C212      1.0  0.59350  0.61900  0.50000  1.0000
  C   C213      1.0  0.62960  0.58800  0.50000  1.0000
  C   C214      1.0  0.50840  0.63090  0.50000  1.0000
  H   H111      1.0  0.46670  0.61860  0.50000  1.0000
  C   C215      1.0  0.53030  0.59060  0.50000  1.0000
  H   H112      1.0  0.50490  0.54810  0.50000  1.0000
  S   S8        1.0  0.62495  0.69682  0.50000  1.0000
  O   O78       1.0  0.68736  0.61868  0.50000  1.0000
  O   O79       1.0  0.59103  0.79797  0.50000  1.0000
  O   O80       1.0  0.60229  0.52992  0.50000  1.0000
  C   C216      1.0  0.54560  0.74460  0.50000  1.0000
  S   S9        1.0  0.07187  0.37505  0.50000  1.0000
  O   O81       1.0  0.93132  0.31264  0.50000  1.0000
  O   O82       1.0  0.20694  0.40897  0.50000  1.0000
  O   O83       1.0  0.92763  0.39771  0.50000  1.0000
  C   C217      1.0  0.19900  0.45440  0.50000  1.0000
  O   O84       1.0  0.24388  0.50812  0.50000  1.0000
  C   C218      1.0  0.13660  0.44630  0.50000  1.0000
  C   C219      1.0  0.02550  0.40650  0.50000  1.0000
  C   C220      1.0  0.95840  0.37040  0.50000  1.0000
  C   C221      1.0  0.12250  0.49160  0.50000  1.0000
  H   H113      1.0  0.15190  0.53330  0.50000  1.0000
  C   C222      1.0  0.06030  0.46970  0.50000  1.0000
  H   H114      1.0  0.04320  0.49510  0.50000  1.0000
  C   C223      1.0  0.63090  0.12250  0.50000  1.0000
  H   H115      1.0  0.61860  0.15190  0.50000  1.0000
  C   C224      1.0  0.59060  0.06030  0.50000  1.0000
  H   H116      1.0  0.54810  0.04320  0.50000  1.0000
  S   S10       1.0  0.69682  0.07187  0.50000  1.0000
  O   O85       1.0  0.61868  0.93132  0.50000  1.0000
  O   O86       1.0  0.79797  0.20694  0.50000  1.0000
  O   O87       1.0  0.52992  0.92763  0.50000  1.0000
  C   C225      1.0  0.74460  0.19900  0.50000  1.0000
  O   O88       1.0  0.73576  0.24388  0.50000  1.0000
  C   C226      1.0  0.69030  0.13660  0.50000  1.0000
  C   C227      1.0  0.61900  0.02550  0.50000  1.0000
  C   C228      1.0  0.58800  0.95840  0.50000  1.0000
  S   S11       1.0  0.37505  0.30318  0.50000  1.0000
  O   O89       1.0  0.31264  0.38132  0.50000  1.0000
  O   O90       1.0  0.40897  0.20203  0.50000  1.0000
  O   O91       1.0  0.39771  0.47008  0.50000  1.0000
  C   C229      1.0  0.45440  0.25540  0.50000  1.0000
  O   O92       1.0  0.50812  0.26424  0.50000  1.0000
  C   C230      1.0  0.44630  0.30970  0.50000  1.0000
  C   C231      1.0  0.40650  0.38100  0.50000  1.0000
  C   C232      1.0  0.37040  0.41200  0.50000  1.0000
  C   C233      1.0  0.49160  0.36910  0.50000  1.0000
  H   H117      1.0  0.53330  0.38140  0.50000  1.0000
  C   C234      1.0  0.46970  0.40940  0.50000  1.0000
  H   H118      1.0  0.49510  0.45190  0.50000  1.0000
  S   S12       1.0  0.92813  0.62495  0.50000  1.0000
  O   O93       1.0  0.06868  0.68736  0.50000  1.0000
  O   O94       1.0  0.79306  0.59103  0.50000  1.0000
  O   O95       1.0  0.07237  0.60229  0.50000  1.0000
  C   C235      1.0  0.80100  0.54560  0.50000  1.0000
  O   O96       1.0  0.75612  0.49188  0.50000  1.0000
  C   C236      1.0  0.86340  0.55370  0.50000  1.0000
  C   C237      1.0  0.97450  0.59350  0.50000  1.0000
  C   C238      1.0  0.04160  0.62960  0.50000  1.0000
  C   C239      1.0  0.87750  0.50840  0.50000  1.0000
  H   H119      1.0  0.84810  0.46670  0.50000  1.0000
  C   C240      1.0  0.93970  0.53030  0.50000  1.0000
  H   H120      1.0  0.95680  0.50490  0.50000  1.0000
  In  In1       1.0  0.31215  0.83706  0.00000  1.0000
  In  In2       1.0  0.47509  0.16294  0.50000  1.0000
  In  In3       1.0  0.83706  0.52491  0.00000  1.0000
  In  In4       1.0  0.31215  0.47509  0.50000  1.0000
  In  In5       1.0  0.16294  0.68785  0.50000  1.0000
  In  In6       1.0  0.16294  0.47509  0.00000  1.0000
  In  In7       1.0  0.68785  0.52491  0.50000  1.0000
  In  In8       1.0  0.47509  0.31215  0.00000  1.0000
  In  In9       1.0  0.83706  0.31215  0.50000  1.0000
  In  In10      1.0  0.68785  0.16294  0.00000  1.0000
  In  In11      1.0  0.52491  0.83706  0.50000  1.0000
  In  In12      1.0  0.52491  0.68785  0.00000  1.0000
