data_image0
_chemical_formula_structural       O2CHCHC2H2CHC3HCH2C2HCHN2HNHNHNHNO2CHCHC2H2CHC3HCH2C2HCHN2HNHNHNHNO2CHCHC2H2CHC3HCH2C2HCHN2HNHNHNHNO2CHCHC2H2CHC3HCH2C2HCHN2HNHNHNHNO2CO2CO2CO2C2O2CO2CO2CO2Mn4
_chemical_formula_sum              "O24 C56 H56 N24 Mn4"
_cell_length_a       9.7821
_cell_length_b       11.574
_cell_length_c       14.918
_cell_angle_alpha    90
_cell_angle_beta     95.6582
_cell_angle_gamma    90

_space_group_name_H-M_alt    "P 1"
_space_group_IT_number       1

loop_
  _space_group_symop_operation_xyz
  'x, y, z'

loop_
  _atom_site_type_symbol
  _atom_site_label
  _atom_site_symmetry_multiplicity
  _atom_site_fract_x
  _atom_site_fract_y
  _atom_site_fract_z
  _atom_site_occupancy
  O   O1        1.0  0.82330  0.10590  0.56935  1.0000
  O   O2        1.0  0.65850  0.29453  0.86768  1.0000
  C   C1        1.0  0.27270  0.10580  0.54920  1.0000
  H   H1        1.0  0.18590  0.09020  0.52060  1.0000
  C   C2        1.0  0.45230  0.19220  0.60600  1.0000
  H   H2        1.0  0.51390  0.25090  0.62410  1.0000
  C   C3        1.0  0.47690  0.07780  0.62019  1.0000
  C   C4        1.0  0.59510  0.00720  0.66147  1.0000
  H   H3        1.0  0.62590  0.95740  0.61530  1.0000
  H   H4        1.0  0.56210  0.95790  0.70730  1.0000
  C   C5        1.0  0.71860  0.07540  0.70411  1.0000
  H   H5        1.0  0.78920  0.01890  0.72510  1.0000
  C   C6        1.0  0.77940  0.15110  0.63468  1.0000
  C   C7        1.0  0.69180  0.25140  0.79774  1.0000
  C   C8        1.0  0.74400  0.32790  0.72633  1.0000
  H   H6        1.0  0.67010  0.38170  0.70570  1.0000
  C   C9        1.0  0.86790  0.40020  0.76664  1.0000
  H   H7        1.0  0.89470  0.45320  0.72110  1.0000
  H   H8        1.0  0.84030  0.44580  0.81640  1.0000
  C   C10       1.0  0.98810  0.32780  0.79931  1.0000
  C   C11       1.0  0.02550  0.28130  0.88152  1.0000
  H   H9        1.0  0.97800  0.29040  0.93210  1.0000
  C   C12       1.0  0.17760  0.22710  0.79565  1.0000
  H   H10       1.0  0.25430  0.19300  0.77450  1.0000
  N   N1        1.0  0.32430  0.20962  0.56118  1.0000
  N   N2        1.0  0.36020  0.02550  0.58320  1.0000
  H   H11       1.0  0.34530  0.95220  0.58200  1.0000
  N   N3        1.0  0.68440  0.13878  0.78285  1.0000
  H   H12       1.0  0.65550  0.09780  0.82530  1.0000
  N   N4        1.0  0.78070  0.26469  0.64840  1.0000
  H   H13       1.0  0.80690  0.30600  0.60530  1.0000
  N   N5        1.0  0.08570  0.29180  0.74556  1.0000
  H   H14       1.0  0.08750  0.30790  0.68940  1.0000
  N   N6        1.0  0.14480  0.21830  0.87874  1.0000
  O   O3        1.0  0.17670  0.60590  0.93065  1.0000
  O   O4        1.0  0.34150  0.79453  0.63232  1.0000
  C   C13       1.0  0.72730  0.60580  0.95080  1.0000
  H   H15       1.0  0.81410  0.59020  0.97940  1.0000
  C   C14       1.0  0.54770  0.69220  0.89400  1.0000
  H   H16       1.0  0.48610  0.75090  0.87590  1.0000
  C   C15       1.0  0.52310  0.57780  0.87981  1.0000
  C   C16       1.0  0.40490  0.50720  0.83853  1.0000
  H   H17       1.0  0.37410  0.45740  0.88470  1.0000
  H   H18       1.0  0.43790  0.45790  0.79270  1.0000
  C   C17       1.0  0.28140  0.57540  0.79589  1.0000
  H   H19       1.0  0.21080  0.51890  0.77490  1.0000
  C   C18       1.0  0.22060  0.65110  0.86532  1.0000
  C   C19       1.0  0.30820  0.75140  0.70226  1.0000
  C   C20       1.0  0.25600  0.82790  0.77367  1.0000
  H   H20       1.0  0.32990  0.88170  0.79430  1.0000
  C   C21       1.0  0.13210  0.90020  0.73336  1.0000
  H   H21       1.0  0.10530  0.95320  0.77890  1.0000
  H   H22       1.0  0.15970  0.94580  0.68360  1.0000
  C   C22       1.0  0.01190  0.82780  0.70069  1.0000
  C   C23       1.0  0.97450  0.78130  0.61848  1.0000
  H   H23       1.0  0.02200  0.79040  0.56790  1.0000
  C   C24       1.0  0.82240  0.72710  0.70435  1.0000
  H   H24       1.0  0.74570  0.69300  0.72550  1.0000
  N   N7        1.0  0.67570  0.70962  0.93882  1.0000
  N   N8        1.0  0.63980  0.52550  0.91680  1.0000
  H   H25       1.0  0.65470  0.45220  0.91800  1.0000
  N   N9        1.0  0.31560  0.63878  0.71715  1.0000
  H   H26       1.0  0.34450  0.59780  0.67470  1.0000
  N   N10       1.0  0.21930  0.76469  0.85160  1.0000
  H   H27       1.0  0.19310  0.80600  0.89470  1.0000
  N   N11       1.0  0.91430  0.79180  0.75444  1.0000
  H   H28       1.0  0.91250  0.80790  0.81060  1.0000
  N   N12       1.0  0.85520  0.71830  0.62126  1.0000
  O   O5        1.0  0.17670  0.89410  0.43065  1.0000
  O   O6        1.0  0.34150  0.70547  0.13232  1.0000
  C   C25       1.0  0.72730  0.89420  0.45080  1.0000
  H   H29       1.0  0.81410  0.90980  0.47940  1.0000
  C   C26       1.0  0.54770  0.80780  0.39400  1.0000
  H   H30       1.0  0.48610  0.74910  0.37590  1.0000
  C   C27       1.0  0.52310  0.92220  0.37981  1.0000
  C   C28       1.0  0.40490  0.99280  0.33853  1.0000
  H   H31       1.0  0.37410  0.04260  0.38470  1.0000
  H   H32       1.0  0.43790  0.04210  0.29270  1.0000
  C   C29       1.0  0.28140  0.92460  0.29589  1.0000
  H   H33       1.0  0.21080  0.98110  0.27490  1.0000
  C   C30       1.0  0.22060  0.84890  0.36532  1.0000
  C   C31       1.0  0.30820  0.74860  0.20226  1.0000
  C   C32       1.0  0.25600  0.67210  0.27367  1.0000
  H   H34       1.0  0.32990  0.61830  0.29430  1.0000
  C   C33       1.0  0.13210  0.59980  0.23336  1.0000
  H   H35       1.0  0.10530  0.54680  0.27890  1.0000
  H   H36       1.0  0.15970  0.55420  0.18360  1.0000
  C   C34       1.0  0.01190  0.67220  0.20069  1.0000
  C   C35       1.0  0.97450  0.71870  0.11848  1.0000
  H   H37       1.0  0.02200  0.70960  0.06790  1.0000
  C   C36       1.0  0.82240  0.77290  0.20435  1.0000
  H   H38       1.0  0.74570  0.80700  0.22550  1.0000
  N   N13       1.0  0.67570  0.79038  0.43882  1.0000
  N   N14       1.0  0.63980  0.97450  0.41680  1.0000
  H   H39       1.0  0.65470  0.04780  0.41800  1.0000
  N   N15       1.0  0.31560  0.86122  0.21715  1.0000
  H   H40       1.0  0.34450  0.90220  0.17470  1.0000
  N   N16       1.0  0.21930  0.73531  0.35160  1.0000
  H   H41       1.0  0.19310  0.69400  0.39470  1.0000
  N   N17       1.0  0.91430  0.70820  0.25444  1.0000
  H   H42       1.0  0.91250  0.69210  0.31060  1.0000
  N   N18       1.0  0.85520  0.78170  0.12126  1.0000
  O   O7        1.0  0.82330  0.39410  0.06935  1.0000
  O   O8        1.0  0.65850  0.20547  0.36768  1.0000
  C   C37       1.0  0.27270  0.39420  0.04920  1.0000
  H   H43       1.0  0.18590  0.40980  0.02060  1.0000
  C   C38       1.0  0.45230  0.30780  0.10600  1.0000
  H   H44       1.0  0.51390  0.24910  0.12410  1.0000
  C   C39       1.0  0.47690  0.42220  0.12019  1.0000
  C   C40       1.0  0.59510  0.49280  0.16147  1.0000
  H   H45       1.0  0.62590  0.54260  0.11530  1.0000
  H   H46       1.0  0.56210  0.54210  0.20730  1.0000
  C   C41       1.0  0.71860  0.42460  0.20411  1.0000
  H   H47       1.0  0.78920  0.48110  0.22510  1.0000
  C   C42       1.0  0.77940  0.34890  0.13468  1.0000
  C   C43       1.0  0.69180  0.24860  0.29774  1.0000
  C   C44       1.0  0.74400  0.17210  0.22633  1.0000
  H   H48       1.0  0.67010  0.11830  0.20570  1.0000
  C   C45       1.0  0.86790  0.09980  0.26664  1.0000
  H   H49       1.0  0.89470  0.04680  0.22110  1.0000
  H   H50       1.0  0.84030  0.05420  0.31640  1.0000
  C   C46       1.0  0.98810  0.17220  0.29931  1.0000
  C   C47       1.0  0.02550  0.21870  0.38152  1.0000
  H   H51       1.0  0.97800  0.20960  0.43210  1.0000
  C   C48       1.0  0.17760  0.27290  0.29565  1.0000
  H   H52       1.0  0.25430  0.30700  0.27450  1.0000
  N   N19       1.0  0.32430  0.29038  0.06118  1.0000
  N   N20       1.0  0.36020  0.47450  0.08320  1.0000
  H   H53       1.0  0.34530  0.54780  0.08200  1.0000
  N   N21       1.0  0.68440  0.36122  0.28285  1.0000
  H   H54       1.0  0.65550  0.40220  0.32530  1.0000
  N   N22       1.0  0.78070  0.23531  0.14840  1.0000
  H   H55       1.0  0.80690  0.19400  0.10530  1.0000
  N   N23       1.0  0.08570  0.20820  0.24556  1.0000
  H   H56       1.0  0.08750  0.19210  0.18940  1.0000
  N   N24       1.0  0.14480  0.28170  0.37874  1.0000
  O   O9        1.0  0.06412  0.38215  0.56402  1.0000
  O   O10       1.0  0.85542  0.46184  0.55089  1.0000
  C   C49       1.0  0.97580  0.45482  0.53357  1.0000
  O   O11       1.0  0.93588  0.61785  0.43598  1.0000
  O   O12       1.0  0.14458  0.53816  0.44911  1.0000
  C   C50       1.0  0.02420  0.54518  0.46643  1.0000
  O   O13       1.0  0.39682  0.46955  0.58626  1.0000
  O   O14       1.0  0.58904  0.57289  0.59011  1.0000
  C   C51       1.0  0.49630  0.51239  0.55122  1.0000
  O   O15       1.0  0.60318  0.53045  0.41374  1.0000
  O   O16       1.0  0.41096  0.42711  0.40989  1.0000
  C   C52       1.0  0.50370  0.48761  0.44878  1.0000
  C   C53       1.0  0.97580  0.04518  0.03357  1.0000
  O   O17       1.0  0.93588  0.88215  0.93598  1.0000
  O   O18       1.0  0.14458  0.96184  0.94911  1.0000
  C   C54       1.0  0.02420  0.95482  0.96643  1.0000
  O   O19       1.0  0.06412  0.11785  0.06402  1.0000
  O   O20       1.0  0.85542  0.03816  0.05089  1.0000
  C   C55       1.0  0.49630  0.98761  0.05122  1.0000
  O   O21       1.0  0.60318  0.96955  0.91374  1.0000
  O   O22       1.0  0.41096  0.07289  0.90989  1.0000
  C   C56       1.0  0.50370  0.01239  0.94878  1.0000
  O   O23       1.0  0.39682  0.03045  0.08626  1.0000
  O   O24       1.0  0.58904  0.92711  0.09011  1.0000
  Mn  Mn1       1.0  0.25254  0.37220  0.49422  1.0000
  Mn  Mn2       1.0  0.74746  0.87220  0.00578  1.0000
  Mn  Mn3       1.0  0.74746  0.62780  0.50578  1.0000
  Mn  Mn4       1.0  0.25254  0.12780  0.99422  1.0000
