data_image0
_chemical_formula_structural       O2C4HCHCHCHONCHCOC3HCHCHCHCHCHC2HC2O4C2NC3HCHCHCHCHCHC3HC2HCHCHCHCHCOCO3CHCHCHC2HC2O4C4HCHCHCHONCHCOC3HCHCH2CHC3HC2HCHCHCHCHCOCO5C2NC3HCHCHCHCO2C4HCHCHCHONCHCOC3HCHCHCHCHCHC2HC2O4C2NC3HCHCHCHCHCHC3HC2HCHCHCHCHCOCO3CHCHCHCHONCHCOC3HCHCHCHCHCHC2HC2O4C3O2C2NC3HCHCHCHCHCHC3HC2HCHCHCHCHCOCO3Cd10
_chemical_formula_sum              "O48 C168 H96 N8 Cd10"
_cell_length_a       14.4144
_cell_length_b       23.3964
_cell_length_c       15.5641
_cell_angle_alpha    90
_cell_angle_beta     107.632
_cell_angle_gamma    90

_space_group_name_H-M_alt    "P 1"
_space_group_IT_number       1

loop_
  _space_group_symop_operation_xyz
  'x, y, z'

loop_
  _atom_site_type_symbol
  _atom_site_label
  _atom_site_symmetry_multiplicity
  _atom_site_fract_x
  _atom_site_fract_y
  _atom_site_fract_z
  _atom_site_occupancy
  O   O1        1.0  0.41290  0.43560  0.60010  1.0000
  O   O2        1.0  0.33750  0.35230  0.59120  1.0000
  C   C1        1.0  0.41610  0.38220  0.60470  1.0000
  C   C2        1.0  0.51030  0.35240  0.62520  1.0000
  C   C3        1.0  0.68920  0.29700  0.67260  1.0000
  C   C4        1.0  0.60400  0.26630  0.63610  1.0000
  H   H1        1.0  0.60660  0.22730  0.62560  1.0000
  C   C5        1.0  0.51510  0.29390  0.61520  1.0000
  H   H2        1.0  0.45790  0.27290  0.59410  1.0000
  C   C6        1.0  0.59710  0.38340  0.65710  1.0000
  H   H3        1.0  0.59520  0.42300  0.66200  1.0000
  C   C7        1.0  0.68550  0.35540  0.68140  1.0000
  H   H4        1.0  0.74280  0.37610  0.70380  1.0000
  O   O3        1.0  0.16000  0.38100  0.63230  1.0000
  N   N1        1.0  0.78230  0.26880  0.69840  1.0000
  C   C8        1.0  0.73450  0.20160  0.79670  1.0000
  H   H5        1.0  0.69320  0.22900  0.80850  1.0000
  C   C9        1.0  0.79400  0.21550  0.74150  1.0000
  O   O4        1.0  0.04510  0.40720  0.50930  1.0000
  C   C10       1.0  0.99940  0.34790  0.61260  1.0000
  C   C11       1.0  0.07020  0.38060  0.58060  1.0000
  C   C12       1.0  0.02070  0.32780  0.70060  1.0000
  H   H6        1.0  0.08310  0.33230  0.74040  1.0000
  C   C13       1.0  0.73830  0.14810  0.83220  1.0000
  H   H7        1.0  0.69520  0.13820  0.86380  1.0000
  C   C14       1.0  0.94960  0.30090  0.72930  1.0000
  H   H8        1.0  0.96400  0.28770  0.78820  1.0000
  C   C15       1.0  0.86200  0.17630  0.73170  1.0000
  H   H9        1.0  0.90240  0.18520  0.69700  1.0000
  C   C16       1.0  0.86960  0.12340  0.77440  1.0000
  H   H10       1.0  0.91800  0.09800  0.77110  1.0000
  C   C17       1.0  0.83670  0.31270  0.57990  1.0000
  H   H11       1.0  0.77540  0.30670  0.53890  1.0000
  C   C18       1.0  0.85720  0.29380  0.66970  1.0000
  C   C19       1.0  0.90650  0.33950  0.55400  1.0000
  H   H12       1.0  0.89190  0.35260  0.49500  1.0000
  C   C20       1.0  0.80530  0.10800  0.82210  1.0000
  C   C21       1.0  0.80680  0.04960  0.86050  1.0000
  O   O5        1.0  0.87780  0.01670  0.86860  1.0000
  O   O6        1.0  0.73140  0.03510  0.87850  1.0000
  O   O7        1.0  0.18680  0.22300  0.70990  1.0000
  O   O8        1.0  0.16660  0.25850  0.57610  1.0000
  C   C22       1.0  0.06300  0.18100  0.58910  1.0000
  C   C23       1.0  0.14410  0.22290  0.62870  1.0000
  N   N2        1.0  0.85360  0.05580  0.46480  1.0000
  C   C24       1.0  0.81720  0.01750  0.51930  1.0000
  C   C25       1.0  0.84030  0.00660  0.20010  1.0000
  C   C26       1.0  0.76790  0.01080  0.32150  1.0000
  H   H13       1.0  0.71600  0.00290  0.34340  1.0000
  C   C27       1.0  0.91870  0.03710  0.25370  1.0000
  H   H14       1.0  0.96880  0.04730  0.23070  1.0000
  C   C28       1.0  0.05690  0.13090  0.63290  1.0000
  H   H15       1.0  0.10030  0.12410  0.68980  1.0000
  C   C29       1.0  0.98630  0.08980  0.59330  1.0000
  H   H16       1.0  0.98350  0.05590  0.62350  1.0000
  C   C30       1.0  0.77380  0.03980  0.57990  1.0000
  H   H17       1.0  0.76730  0.07910  0.58460  1.0000
  C   C31       1.0  0.82700  0.95900  0.51110  1.0000
  H   H18       1.0  0.85630  0.94430  0.47020  1.0000
  C   C32       1.0  0.84950  0.04030  0.37490  1.0000
  C   C33       1.0  0.92100  0.09960  0.50970  1.0000
  C   C34       1.0  0.92420  0.05280  0.34020  1.0000
  H   H19       1.0  0.97900  0.07210  0.37560  1.0000
  C   C35       1.0  0.74790  0.94490  0.62810  1.0000
  C   C36       1.0  0.99500  0.19140  0.50560  1.0000
  H   H20       1.0  0.99810  0.22530  0.47550  1.0000
  C   C37       1.0  0.76520  0.99360  0.23590  1.0000
  H   H21       1.0  0.71200  0.97280  0.20130  1.0000
  C   C38       1.0  0.73970  0.00250  0.63430  1.0000
  H   H22       1.0  0.71080  0.01760  0.67530  1.0000
  C   C39       1.0  0.79230  0.92260  0.56550  1.0000
  H   H23       1.0  0.79840  0.88320  0.56060  1.0000
  C   C40       1.0  0.92160  0.15140  0.46630  1.0000
  H   H24       1.0  0.87420  0.15950  0.41210  1.0000
  C   C41       1.0  0.83560  0.99030  0.10780  1.0000
  O   O9        1.0  0.67530  0.92610  0.74280  1.0000
  C   C42       1.0  0.71690  0.90600  0.68930  1.0000
  O   O10       1.0  0.77550  0.95200  0.06660  1.0000
  O   O11       1.0  0.89400  0.01650  0.07310  1.0000
  O   O12       1.0  0.73130  0.85250  0.68190  1.0000
  C   C43       1.0  0.13800  0.67630  0.76830  1.0000
  H   H25       1.0  0.09760  0.68520  0.80300  1.0000
  C   C44       1.0  0.13040  0.62340  0.72560  1.0000
  H   H26       1.0  0.08200  0.59800  0.72890  1.0000
  C   C45       1.0  0.16330  0.81270  0.92010  1.0000
  H   H27       1.0  0.22460  0.80670  0.96110  1.0000
  C   C46       1.0  0.14280  0.79380  0.83030  1.0000
  C   C47       1.0  0.09350  0.83950  0.94600  1.0000
  H   H28       1.0  0.10810  0.85260  0.00500  1.0000
  C   C48       1.0  0.19470  0.60800  0.67790  1.0000
  C   C49       1.0  0.19320  0.54960  0.63950  1.0000
  O   O13       1.0  0.12220  0.51670  0.63140  1.0000
  O   O14       1.0  0.26860  0.53510  0.62150  1.0000
  O   O15       1.0  0.58710  0.93560  0.89990  1.0000
  O   O16       1.0  0.66250  0.85230  0.90880  1.0000
  C   C50       1.0  0.58390  0.88220  0.89530  1.0000
  C   C51       1.0  0.48970  0.85240  0.87480  1.0000
  C   C52       1.0  0.31080  0.79700  0.82740  1.0000
  C   C53       1.0  0.39600  0.76630  0.86390  1.0000
  H   H29       1.0  0.39340  0.72730  0.87440  1.0000
  C   C54       1.0  0.48490  0.79390  0.88480  1.0000
  H   H30       1.0  0.54210  0.77290  0.90590  1.0000
  C   C55       1.0  0.40290  0.88340  0.84290  1.0000
  H   H31       1.0  0.40480  0.92300  0.83800  1.0000
  C   C56       1.0  0.31450  0.85540  0.81860  1.0000
  H   H32       1.0  0.25720  0.87610  0.79620  1.0000
  O   O17       1.0  0.84000  0.88100  0.86770  1.0000
  N   N3        1.0  0.21770  0.76880  0.80160  1.0000
  C   C57       1.0  0.26550  0.70160  0.70330  1.0000
  H   H33       1.0  0.30680  0.72900  0.69150  1.0000
  C   C58       1.0  0.20600  0.71550  0.75850  1.0000
  O   O18       1.0  0.95490  0.90720  0.99070  1.0000
  C   C59       1.0  0.00060  0.84790  0.88740  1.0000
  C   C60       1.0  0.92980  0.88060  0.91940  1.0000
  C   C61       1.0  0.97930  0.82780  0.79940  1.0000
  H   H34       1.0  0.91690  0.83230  0.75960  1.0000
  C   C62       1.0  0.26170  0.64810  0.66780  1.0000
  H   H35       1.0  0.30480  0.63820  0.63620  1.0000
  C   C63       1.0  0.05040  0.80090  0.77070  1.0000
  H   H36       1.0  0.03600  0.78770  0.71180  1.0000
  H   H37       1.0  0.23270  0.57910  0.91540  1.0000
  C   C64       1.0  0.17300  0.45900  0.98890  1.0000
  H   H38       1.0  0.14370  0.44430  0.02980  1.0000
  C   C65       1.0  0.15050  0.54030  0.12510  1.0000
  C   C66       1.0  0.07900  0.59960  0.99030  1.0000
  C   C67       1.0  0.07580  0.55280  0.15980  1.0000
  H   H39       1.0  0.02100  0.57210  0.12440  1.0000
  C   C68       1.0  0.25210  0.44490  0.87190  1.0000
  C   C69       1.0  0.00500  0.69140  0.99440  1.0000
  H   H40       1.0  0.00190  0.72530  0.02450  1.0000
  C   C70       1.0  0.23480  0.49360  0.26410  1.0000
  H   H41       1.0  0.28800  0.47280  0.29870  1.0000
  C   C71       1.0  0.26030  0.50250  0.86570  1.0000
  H   H42       1.0  0.28920  0.51760  0.82470  1.0000
  C   C72       1.0  0.20770  0.42260  0.93450  1.0000
  H   H43       1.0  0.20160  0.38320  0.93940  1.0000
  C   C73       1.0  0.07840  0.65140  0.03370  1.0000
  H   H44       1.0  0.12580  0.65950  0.08790  1.0000
  C   C74       1.0  0.16440  0.49030  0.39220  1.0000
  O   O19       1.0  0.32470  0.42610  0.75720  1.0000
  C   C75       1.0  0.28310  0.40600  0.81070  1.0000
  O   O20       1.0  0.22450  0.45200  0.43340  1.0000
  O   O21       1.0  0.10600  0.51650  0.42690  1.0000
  O   O22       1.0  0.26870  0.35250  0.81810  1.0000
  O   O23       1.0  0.81320  0.72300  0.79010  1.0000
  O   O24       1.0  0.83340  0.75850  0.92390  1.0000
  C   C76       1.0  0.93700  0.68100  0.91090  1.0000
  C   C77       1.0  0.85590  0.72290  0.87130  1.0000
  N   N4        1.0  0.14640  0.55580  0.03520  1.0000
  C   C78       1.0  0.18280  0.51750  0.98070  1.0000
  C   C79       1.0  0.15970  0.50660  0.29990  1.0000
  C   C80       1.0  0.23210  0.51080  0.17850  1.0000
  H   H45       1.0  0.28400  0.50290  0.15660  1.0000
  C   C81       1.0  0.08130  0.53710  0.24630  1.0000
  H   H46       1.0  0.03120  0.54730  0.26930  1.0000
  C   C82       1.0  0.94310  0.63090  0.86710  1.0000
  H   H47       1.0  0.89970  0.62410  0.81020  1.0000
  C   C83       1.0  0.01370  0.58980  0.90670  1.0000
  H   H48       1.0  0.01650  0.55590  0.87650  1.0000
  C   C84       1.0  0.22620  0.53980  0.92010  1.0000
  O   O25       1.0  0.58710  0.56440  0.39990  1.0000
  O   O26       1.0  0.66250  0.64770  0.40880  1.0000
  C   C85       1.0  0.58390  0.61780  0.39530  1.0000
  C   C86       1.0  0.48970  0.64760  0.37480  1.0000
  C   C87       1.0  0.31080  0.70300  0.32740  1.0000
  C   C88       1.0  0.39600  0.73370  0.36390  1.0000
  H   H49       1.0  0.39340  0.77270  0.37440  1.0000
  C   C89       1.0  0.48490  0.70610  0.38480  1.0000
  H   H50       1.0  0.54210  0.72710  0.40590  1.0000
  C   C90       1.0  0.40290  0.61660  0.34290  1.0000
  H   H51       1.0  0.40480  0.57700  0.33800  1.0000
  C   C91       1.0  0.31450  0.64460  0.31860  1.0000
  H   H52       1.0  0.25720  0.62390  0.29620  1.0000
  O   O27       1.0  0.84000  0.61900  0.36770  1.0000
  N   N5        1.0  0.21770  0.73120  0.30160  1.0000
  C   C92       1.0  0.26550  0.79840  0.20330  1.0000
  H   H53       1.0  0.30680  0.77100  0.19150  1.0000
  C   C93       1.0  0.20600  0.78450  0.25850  1.0000
  O   O28       1.0  0.95490  0.59280  0.49070  1.0000
  C   C94       1.0  0.00060  0.65210  0.38740  1.0000
  C   C95       1.0  0.92980  0.61940  0.41940  1.0000
  C   C96       1.0  0.97930  0.67220  0.29940  1.0000
  H   H54       1.0  0.91690  0.66770  0.25960  1.0000
  C   C97       1.0  0.26170  0.85190  0.16780  1.0000
  H   H55       1.0  0.30480  0.86180  0.13620  1.0000
  C   C98       1.0  0.05040  0.69910  0.27070  1.0000
  H   H56       1.0  0.03600  0.71230  0.21180  1.0000
  C   C99       1.0  0.13800  0.82370  0.26830  1.0000
  H   H57       1.0  0.09760  0.81480  0.30300  1.0000
  C   C100      1.0  0.13040  0.87660  0.22560  1.0000
  H   H58       1.0  0.08200  0.90200  0.22890  1.0000
  C   C101      1.0  0.16330  0.68730  0.42010  1.0000
  H   H59       1.0  0.22460  0.69330  0.46110  1.0000
  C   C102      1.0  0.14280  0.70620  0.33030  1.0000
  C   C103      1.0  0.09350  0.66050  0.44600  1.0000
  H   H60       1.0  0.10810  0.64740  0.50500  1.0000
  C   C104      1.0  0.19470  0.89200  0.17790  1.0000
  C   C105      1.0  0.19320  0.95040  0.13950  1.0000
  O   O29       1.0  0.12220  0.98330  0.13140  1.0000
  O   O30       1.0  0.26860  0.96490  0.12150  1.0000
  O   O31       1.0  0.81320  0.77700  0.29010  1.0000
  O   O32       1.0  0.83340  0.74150  0.42390  1.0000
  C   C106      1.0  0.93700  0.81900  0.41090  1.0000
  C   C107      1.0  0.85590  0.77710  0.37130  1.0000
  N   N6        1.0  0.14640  0.94420  0.53520  1.0000
  C   C108      1.0  0.18280  0.98250  0.48070  1.0000
  C   C109      1.0  0.15970  0.99340  0.79990  1.0000
  C   C110      1.0  0.23210  0.98920  0.67850  1.0000
  H   H61       1.0  0.28400  0.99710  0.65660  1.0000
  C   C111      1.0  0.08130  0.96290  0.74630  1.0000
  H   H62       1.0  0.03120  0.95270  0.76930  1.0000
  C   C112      1.0  0.94310  0.86910  0.36710  1.0000
  H   H63       1.0  0.89970  0.87590  0.31020  1.0000
  C   C113      1.0  0.01370  0.91020  0.40670  1.0000
  H   H64       1.0  0.01650  0.94410  0.37650  1.0000
  C   C114      1.0  0.22620  0.96020  0.42010  1.0000
  H   H65       1.0  0.23270  0.92090  0.41540  1.0000
  C   C115      1.0  0.17300  0.04100  0.48890  1.0000
  H   H66       1.0  0.14370  0.05570  0.52980  1.0000
  C   C116      1.0  0.15050  0.95970  0.62510  1.0000
  C   C117      1.0  0.07900  0.90040  0.49030  1.0000
  C   C118      1.0  0.07580  0.94720  0.65980  1.0000
  H   H67       1.0  0.02100  0.92790  0.62440  1.0000
  C   C119      1.0  0.25210  0.05510  0.37190  1.0000
  C   C120      1.0  0.00500  0.80860  0.49440  1.0000
  H   H68       1.0  0.00190  0.77470  0.52450  1.0000
  C   C121      1.0  0.23480  0.00640  0.76410  1.0000
  H   H69       1.0  0.28800  0.02720  0.79870  1.0000
  C   C122      1.0  0.26030  0.99750  0.36570  1.0000
  H   H70       1.0  0.28920  0.98240  0.32470  1.0000
  C   C123      1.0  0.20770  0.07740  0.43450  1.0000
  H   H71       1.0  0.20160  0.11680  0.43940  1.0000
  C   C124      1.0  0.07840  0.84860  0.53370  1.0000
  H   H72       1.0  0.12580  0.84050  0.58790  1.0000
  C   C125      1.0  0.16440  0.00970  0.89220  1.0000
  O   O33       1.0  0.32470  0.07390  0.25720  1.0000
  C   C126      1.0  0.28310  0.09400  0.31070  1.0000
  O   O34       1.0  0.22450  0.04800  0.93340  1.0000
  O   O35       1.0  0.10600  0.98350  0.92690  1.0000
  O   O36       1.0  0.26870  0.14750  0.31810  1.0000
  C   C127      1.0  0.60400  0.23370  0.13610  1.0000
  H   H73       1.0  0.60660  0.27270  0.12560  1.0000
  C   C128      1.0  0.51510  0.20610  0.11520  1.0000
  H   H74       1.0  0.45790  0.22710  0.09410  1.0000
  C   C129      1.0  0.59710  0.11660  0.15710  1.0000
  H   H75       1.0  0.59520  0.07700  0.16200  1.0000
  C   C130      1.0  0.68550  0.14460  0.18140  1.0000
  H   H76       1.0  0.74280  0.12390  0.20380  1.0000
  O   O37       1.0  0.16000  0.11900  0.13230  1.0000
  N   N7        1.0  0.78230  0.23120  0.19840  1.0000
  C   C131      1.0  0.73450  0.29840  0.29670  1.0000
  H   H77       1.0  0.69320  0.27100  0.30850  1.0000
  C   C132      1.0  0.79400  0.28450  0.24150  1.0000
  O   O38       1.0  0.04510  0.09280  0.00930  1.0000
  C   C133      1.0  0.99940  0.15210  0.11260  1.0000
  C   C134      1.0  0.07020  0.11940  0.08060  1.0000
  C   C135      1.0  0.02070  0.17220  0.20060  1.0000
  H   H78       1.0  0.08310  0.16770  0.24040  1.0000
  C   C136      1.0  0.73830  0.35190  0.33220  1.0000
  H   H79       1.0  0.69520  0.36180  0.36380  1.0000
  C   C137      1.0  0.94960  0.19910  0.22930  1.0000
  H   H80       1.0  0.96400  0.21230  0.28820  1.0000
  C   C138      1.0  0.86200  0.32370  0.23170  1.0000
  H   H81       1.0  0.90240  0.31480  0.19700  1.0000
  C   C139      1.0  0.86960  0.37660  0.27440  1.0000
  H   H82       1.0  0.91800  0.40200  0.27110  1.0000
  C   C140      1.0  0.83670  0.18730  0.07990  1.0000
  H   H83       1.0  0.77540  0.19330  0.03890  1.0000
  C   C141      1.0  0.85720  0.20620  0.16970  1.0000
  C   C142      1.0  0.90650  0.16050  0.05400  1.0000
  H   H84       1.0  0.89190  0.14740  0.99500  1.0000
  C   C143      1.0  0.80530  0.39200  0.32210  1.0000
  C   C144      1.0  0.80680  0.45040  0.36050  1.0000
  O   O39       1.0  0.87780  0.48330  0.36860  1.0000
  O   O40       1.0  0.73140  0.46490  0.37850  1.0000
  O   O41       1.0  0.41290  0.06440  0.10010  1.0000
  O   O42       1.0  0.33750  0.14770  0.09120  1.0000
  C   C145      1.0  0.41610  0.11780  0.10470  1.0000
  C   C146      1.0  0.51030  0.14760  0.12520  1.0000
  C   C147      1.0  0.68920  0.20300  0.17260  1.0000
  O   O43       1.0  0.18680  0.27700  0.20990  1.0000
  O   O44       1.0  0.16660  0.24150  0.07610  1.0000
  C   C148      1.0  0.06300  0.31900  0.08910  1.0000
  C   C149      1.0  0.14410  0.27710  0.12870  1.0000
  N   N8        1.0  0.85360  0.44420  0.96480  1.0000
  C   C150      1.0  0.81720  0.48250  0.01930  1.0000
  C   C151      1.0  0.84030  0.49340  0.70010  1.0000
  C   C152      1.0  0.76790  0.48920  0.82150  1.0000
  H   H85       1.0  0.71600  0.49710  0.84340  1.0000
  C   C153      1.0  0.91870  0.46290  0.75370  1.0000
  H   H86       1.0  0.96880  0.45270  0.73070  1.0000
  C   C154      1.0  0.05690  0.36910  0.13290  1.0000
  H   H87       1.0  0.10030  0.37590  0.18980  1.0000
  C   C155      1.0  0.98630  0.41020  0.09330  1.0000
  H   H88       1.0  0.98350  0.44410  0.12350  1.0000
  C   C156      1.0  0.77380  0.46020  0.07990  1.0000
  H   H89       1.0  0.76730  0.42090  0.08460  1.0000
  C   C157      1.0  0.82700  0.54100  0.01110  1.0000
  H   H90       1.0  0.85630  0.55570  0.97020  1.0000
  C   C158      1.0  0.84950  0.45970  0.87490  1.0000
  C   C159      1.0  0.92100  0.40040  0.00970  1.0000
  C   C160      1.0  0.92420  0.44720  0.84020  1.0000
  H   H91       1.0  0.97900  0.42790  0.87560  1.0000
  C   C161      1.0  0.74790  0.55510  0.12810  1.0000
  C   C162      1.0  0.99500  0.30860  0.00560  1.0000
  H   H92       1.0  0.99810  0.27470  0.97550  1.0000
  C   C163      1.0  0.76520  0.50640  0.73590  1.0000
  H   H93       1.0  0.71200  0.52720  0.70130  1.0000
  C   C164      1.0  0.73970  0.49750  0.13430  1.0000
  H   H94       1.0  0.71080  0.48240  0.17530  1.0000
  C   C165      1.0  0.79230  0.57740  0.06550  1.0000
  H   H95       1.0  0.79840  0.61680  0.06060  1.0000
  C   C166      1.0  0.92160  0.34860  0.96630  1.0000
  H   H96       1.0  0.87420  0.34050  0.91210  1.0000
  C   C167      1.0  0.83560  0.50970  0.60780  1.0000
  O   O45       1.0  0.67530  0.57390  0.24280  1.0000
  C   C168      1.0  0.71690  0.59400  0.18930  1.0000
  O   O46       1.0  0.77550  0.54800  0.56660  1.0000
  O   O47       1.0  0.89400  0.48350  0.57310  1.0000
  O   O48       1.0  0.73130  0.64750  0.18190  1.0000
  Cd  Cd1       1.0  0.24684  0.44474  0.58252  1.0000
  Cd  Cd2       1.0  0.27371  0.30844  0.69252  1.0000
  Cd  Cd3       1.0  0.75316  0.55526  0.41748  1.0000
  Cd  Cd4       1.0  0.72629  0.69156  0.30748  1.0000
  Cd  Cd5       1.0  0.00000  0.50000  0.50000  1.0000
  Cd  Cd6       1.0  0.00000  0.00000  0.00000  1.0000
  Cd  Cd7       1.0  0.75316  0.94474  0.91748  1.0000
  Cd  Cd8       1.0  0.72629  0.80844  0.80748  1.0000
  Cd  Cd9       1.0  0.24684  0.05526  0.08252  1.0000
  Cd  Cd10      1.0  0.27371  0.19156  0.19252  1.0000
