data_image0
_chemical_formula_structural       O2C2HCNHCHO2C2HC2HCHO4CHCHC5HC3HC2O2C2HCNHCHO2C2HC2HCHO4CHCHC5HC3HC2HCHC5HC3HC2O2C2HC2HCHO2C2HCNHCHO4CO4CH2C7OC3HC2OCH2CHC2O2C2HCNHCH2Cd6
_chemical_formula_sum              "O32 C84 H40 N4 Cd6"
_cell_length_a       28.148
_cell_length_b       9.8935
_cell_length_c       10.4272
_cell_angle_alpha    90
_cell_angle_beta     107.356
_cell_angle_gamma    90

_space_group_name_H-M_alt    "P 1"
_space_group_IT_number       1

loop_
  _space_group_symop_operation_xyz
  'x, y, z'

loop_
  _atom_site_type_symbol
  _atom_site_label
  _atom_site_symmetry_multiplicity
  _atom_site_fract_x
  _atom_site_fract_y
  _atom_site_fract_z
  _atom_site_occupancy
  O   O1        1.0  0.40533  0.21692  0.25964  1.0000
  O   O2        1.0  0.47544  0.11967  0.33045  1.0000
  C   C1        1.0  0.47493  0.37597  0.32935  1.0000
  C   C2        1.0  0.52775  0.37933  0.36989  1.0000
  H   H1        1.0  0.54789  0.28469  0.38475  1.0000
  C   C3        1.0  0.44950  0.23856  0.31037  1.0000
  N   N1        1.0  0.63659  0.40268  0.53388  1.0000
  H   H2        1.0  0.61681  0.32232  0.55701  1.0000
  C   C4        1.0  0.68709  0.40424  0.59403  1.0000
  H   H3        1.0  0.70426  0.32303  0.66180  1.0000
  O   O3        1.0  0.40535  0.78656  0.25409  1.0000
  O   O4        1.0  0.47518  0.88324  0.32928  1.0000
  C   C5        1.0  0.47480  0.62708  0.32752  1.0000
  C   C6        1.0  0.52761  0.62403  0.36930  1.0000
  H   H4        1.0  0.54769  0.71871  0.38890  1.0000
  C   C7        1.0  0.44934  0.76446  0.30698  1.0000
  C   C8        1.0  0.64063  0.60688  0.41744  1.0000
  H   H5        1.0  0.62335  0.68636  0.34783  1.0000
  C   C9        1.0  0.69275  0.60768  0.47449  1.0000
  H   H6        1.0  0.71405  0.68756  0.44699  1.0000
  O   O5        1.0  0.86921  0.50206  0.36898  1.0000
  O   O6        1.0  0.84819  0.50266  0.06352  1.0000
  O   O7        1.0  0.91914  0.50439  0.03907  1.0000
  O   O8        1.0  0.93518  0.50277  0.54909  1.0000
  C   C10       1.0  0.44875  0.50140  0.30491  1.0000
  H   H7        1.0  0.40847  0.50115  0.27109  1.0000
  C   C11       1.0  0.87803  0.50352  0.73547  1.0000
  H   H8        1.0  0.91818  0.50278  0.77672  1.0000
  C   C12       1.0  0.85609  0.50470  0.59246  1.0000
  C   C13       1.0  0.77313  0.50619  0.62709  1.0000
  C   C14       1.0  0.55500  0.50179  0.39242  1.0000
  C   C15       1.0  0.71705  0.50736  0.56658  1.0000
  C   C16       1.0  0.79610  0.50270  0.76868  1.0000
  H   H9        1.0  0.77267  0.50166  0.83431  1.0000
  C   C17       1.0  0.84880  0.50320  0.82613  1.0000
  C   C18       1.0  0.61177  0.50241  0.44840  1.0000
  C   C19       1.0  0.80369  0.50772  0.54138  1.0000
  H   H10       1.0  0.78632  0.50937  0.43364  1.0000
  C   C20       1.0  0.87270  0.50336  0.97961  1.0000
  C   C21       1.0  0.88808  0.50311  0.49759  1.0000
  O   O9        1.0  0.90522  0.71738  0.26028  1.0000
  O   O10       1.0  0.97535  0.62001  0.33023  1.0000
  C   C22       1.0  0.97487  0.87646  0.32957  1.0000
  C   C23       1.0  0.02770  0.87985  0.37008  1.0000
  H   H11       1.0  0.04786  0.78522  0.38500  1.0000
  C   C24       1.0  0.94942  0.73898  0.31053  1.0000
  N   N2        1.0  0.13653  0.90356  0.53433  1.0000
  H   H12       1.0  0.11671  0.82356  0.55797  1.0000
  C   C25       1.0  0.18703  0.90506  0.59435  1.0000
  H   H13       1.0  0.20417  0.82413  0.66248  1.0000
  O   O11       1.0  0.90531  0.28710  0.25462  1.0000
  O   O12       1.0  0.97509  0.38411  0.32972  1.0000
  C   C26       1.0  0.97477  0.12769  0.32782  1.0000
  C   C27       1.0  0.02759  0.12459  0.36942  1.0000
  H   H14       1.0  0.04770  0.21925  0.38895  1.0000
  C   C28       1.0  0.94932  0.26514  0.30743  1.0000
  C   C29       1.0  0.14062  0.10687  0.41661  1.0000
  H   H15       1.0  0.12335  0.18604  0.34661  1.0000
  C   C30       1.0  0.19276  0.10755  0.47354  1.0000
  H   H16       1.0  0.21411  0.18704  0.44562  1.0000
  O   O13       1.0  0.36913  0.00163  0.36807  1.0000
  O   O14       1.0  0.34830  0.00228  0.06294  1.0000
  O   O15       1.0  0.41924  0.00394  0.03844  1.0000
  O   O16       1.0  0.43505  0.00241  0.54812  1.0000
  C   C31       1.0  0.94870  0.00197  0.30527  1.0000
  H   H17       1.0  0.90843  0.00171  0.27164  1.0000
  C   C32       1.0  0.37803  0.00324  0.73469  1.0000
  H   H18       1.0  0.41819  0.00230  0.77582  1.0000
  C   C33       1.0  0.35603  0.00460  0.59167  1.0000
  C   C34       1.0  0.27311  0.00632  0.62658  1.0000
  C   C35       1.0  0.05495  0.00232  0.39249  1.0000
  C   C36       1.0  0.21703  0.00765  0.56620  1.0000
  C   C37       1.0  0.29614  0.00262  0.76814  1.0000
  H   H19       1.0  0.27273  0.00169  0.83385  1.0000
  C   C38       1.0  0.34885  0.00292  0.82548  1.0000
  C   C39       1.0  0.11173  0.00289  0.44830  1.0000
  C   C40       1.0  0.30364  0.00783  0.54075  1.0000
  H   H20       1.0  0.28624  0.00954  0.43303  1.0000
  C   C41       1.0  0.37280  0.00298  0.97898  1.0000
  C   C42       1.0  0.38798  0.00282  0.49667  1.0000
  H   H21       1.0  0.59156  0.49834  0.72781  1.0000
  C   C43       1.0  0.12194  0.49697  0.26598  1.0000
  H   H22       1.0  0.08178  0.49798  0.22507  1.0000
  C   C44       1.0  0.14406  0.49576  0.40902  1.0000
  C   C45       1.0  0.22687  0.49344  0.37355  1.0000
  C   C46       1.0  0.44503  0.49754  0.60718  1.0000
  C   C47       1.0  0.28298  0.49196  0.43372  1.0000
  C   C48       1.0  0.20374  0.49701  0.23199  1.0000
  H   H23       1.0  0.22707  0.49768  0.16609  1.0000
  C   C49       1.0  0.15101  0.49697  0.17486  1.0000
  C   C50       1.0  0.38828  0.49692  0.55150  1.0000
  C   C51       1.0  0.19645  0.49234  0.45962  1.0000
  H   H24       1.0  0.21393  0.49067  0.56732  1.0000
  C   C52       1.0  0.12699  0.49690  0.02126  1.0000
  C   C53       1.0  0.11226  0.49758  0.50442  1.0000
  O   O17       1.0  0.59470  0.21298  0.74521  1.0000
  O   O18       1.0  0.52489  0.11641  0.66953  1.0000
  C   C54       1.0  0.52525  0.37239  0.67170  1.0000
  C   C55       1.0  0.47242  0.37535  0.63029  1.0000
  H   H25       1.0  0.45231  0.28067  0.61098  1.0000
  C   C56       1.0  0.55072  0.23509  0.69204  1.0000
  C   C57       1.0  0.35938  0.39371  0.58431  1.0000
  H   H26       1.0  0.37667  0.31525  0.65514  1.0000
  C   C58       1.0  0.30724  0.39299  0.52748  1.0000
  H   H27       1.0  0.28591  0.31413  0.55639  1.0000
  O   O19       1.0  0.59465  0.78254  0.73982  1.0000
  O   O20       1.0  0.52450  0.87955  0.66887  1.0000
  C   C59       1.0  0.52508  0.62342  0.66990  1.0000
  C   C60       1.0  0.47225  0.62002  0.62938  1.0000
  H   H28       1.0  0.45205  0.71459  0.61432  1.0000
  C   C61       1.0  0.55049  0.76079  0.68900  1.0000
  N   N3        1.0  0.36351  0.59537  0.46438  1.0000
  H   H29       1.0  0.38336  0.67486  0.44001  1.0000
  C   C62       1.0  0.31301  0.59368  0.40431  1.0000
  H   H30       1.0  0.29590  0.67387  0.33521  1.0000
  O   O21       1.0  0.13114  0.49816  0.63298  1.0000
  O   O22       1.0  0.15148  0.49743  0.93730  1.0000
  O   O23       1.0  0.08055  0.49612  0.96170  1.0000
  O   O24       1.0  0.06520  0.49849  0.45338  1.0000
  C   C63       1.0  0.55129  0.49806  0.69422  1.0000
  O   O25       1.0  0.63109  0.99762  0.63210  1.0000
  O   O26       1.0  0.65163  0.99738  0.93679  1.0000
  O   O27       1.0  0.58068  0.99573  0.96112  1.0000
  O   O28       1.0  0.56510  0.99879  0.45248  1.0000
  C   C64       1.0  0.05129  0.99858  0.69450  1.0000
  H   H31       1.0  0.09157  0.99891  0.72821  1.0000
  H   H32       1.0  0.72717  0.99809  0.16571  1.0000
  C   C65       1.0  0.62195  0.99709  0.26524  1.0000
  C   C66       1.0  0.64402  0.99597  0.40827  1.0000
  C   C67       1.0  0.72688  0.99393  0.37307  1.0000
  C   C68       1.0  0.94502  0.99802  0.60729  1.0000
  C   C69       1.0  0.78296  0.99251  0.43336  1.0000
  C   C70       1.0  0.70380  0.99737  0.23151  1.0000
  C   C71       1.0  0.65108  0.99710  0.17427  1.0000
  O   O29       1.0  0.09468  0.71348  0.74589  1.0000
  C   C72       1.0  0.88826  0.99740  0.55143  1.0000
  C   C73       1.0  0.02526  0.87296  0.67204  1.0000
  C   C74       1.0  0.97243  0.87586  0.63042  1.0000
  H   H33       1.0  0.95236  0.78115  0.61096  1.0000
  C   C75       1.0  0.05072  0.73572  0.69260  1.0000
  C   C76       1.0  0.85937  0.89354  0.58323  1.0000
  O   O30       1.0  0.02485  0.61719  0.67003  1.0000
  C   C77       1.0  0.80724  0.89281  0.52626  1.0000
  H   H34       1.0  0.87663  0.81456  0.65341  1.0000
  H   H35       1.0  0.78593  0.81343  0.55449  1.0000
  C   C78       1.0  0.69641  0.99270  0.45901  1.0000
  H   H36       1.0  0.71385  0.99106  0.56672  1.0000
  C   C79       1.0  0.62712  0.99679  0.02071  1.0000
  C   C80       1.0  0.61217  0.99759  0.50355  1.0000
  O   O31       1.0  0.09455  0.28305  0.74028  1.0000
  O   O32       1.0  0.02435  0.37974  0.66854  1.0000
  C   C81       1.0  0.02507  0.12385  0.67004  1.0000
  C   C82       1.0  0.97225  0.12045  0.62960  1.0000
  H   H37       1.0  0.95207  0.21505  0.61466  1.0000
  C   C83       1.0  0.05043  0.26118  0.68901  1.0000
  N   N4        1.0  0.86347  0.09657  0.46520  1.0000
  H   H38       1.0  0.88328  0.17656  0.44156  1.0000
  C   C84       1.0  0.81298  0.09496  0.40504  1.0000
  H   H39       1.0  0.79586  0.17576  0.33675  1.0000
  H   H40       1.0  0.58180  0.99801  0.22423  1.0000
  Cd  Cd1       1.0  0.91101  0.50255  0.23504  1.0000
  Cd  Cd2       1.0  0.00003  0.50062  0.50012  1.0000
  Cd  Cd3       1.0  0.41112  0.00205  0.23449  1.0000
  Cd  Cd4       1.0  0.49995  0.99951  0.49962  1.0000
  Cd  Cd5       1.0  0.08875  0.49786  0.76551  1.0000
  Cd  Cd6       1.0  0.58888  0.99743  0.76500  1.0000
