data_image0
_chemical_formula_structural       PC2HO4PC2HO4PCHCOPC2HO4PC2HO4PCHCO2PC2HO4PCHCOPC2HO3PC2HO4PC2HO4PCHCOPC2HO4PCHCOPC2HO4PC2HO4PCHCOPC2HO4PC2HO4PCHCOPC2HO4PC2HO3C2HPO2PC2HO4Zn24
_chemical_formula_sum              "P24 C48 H24 O72 Zn24"
_cell_length_a       22.998
_cell_length_b       8.563
_cell_length_c       16.146
_cell_angle_alpha    90
_cell_angle_beta     90
_cell_angle_gamma    90

_space_group_name_H-M_alt    "P 1"
_space_group_IT_number       1

loop_
  _space_group_symop_operation_xyz
  'x, y, z'

loop_
  _atom_site_type_symbol
  _atom_site_label
  _atom_site_symmetry_multiplicity
  _atom_site_fract_x
  _atom_site_fract_y
  _atom_site_fract_z
  _atom_site_occupancy
  P   P1        1.0  0.38030  0.64122  0.88007  1.0000
  C   C1        1.0  0.44680  0.68340  0.93440  1.0000
  C   C2        1.0  0.44720  0.74720  0.01320  1.0000
  H   H1        1.0  0.41220  0.76970  0.03960  1.0000
  O   O1        1.0  0.37298  0.76190  0.81100  1.0000
  O   O2        1.0  0.38367  0.47560  0.84610  1.0000
  O   O3        1.0  0.33046  0.65850  0.94190  1.0000
  O   O4        1.0  0.44412  0.92950  0.17580  1.0000
  P   P2        1.0  0.61970  0.64122  0.88007  1.0000
  C   C3        1.0  0.55320  0.68340  0.93440  1.0000
  C   C4        1.0  0.55280  0.74720  0.01320  1.0000
  H   H2        1.0  0.58780  0.76970  0.03960  1.0000
  O   O5        1.0  0.62702  0.76190  0.81100  1.0000
  O   O6        1.0  0.61633  0.47560  0.84610  1.0000
  O   O7        1.0  0.66954  0.65850  0.94190  1.0000
  O   O8        1.0  0.55588  0.92950  0.17580  1.0000
  P   P3        1.0  0.50000  0.84140  0.15969  1.0000
  C   C5        1.0  0.50000  0.64820  0.89660  1.0000
  H   H3        1.0  0.50000  0.60000  0.84500  1.0000
  C   C6        1.0  0.50000  0.77840  0.05380  1.0000
  O   O9        1.0  0.50000  0.68930  0.21470  1.0000
  P   P4        1.0  0.88030  0.14122  0.88007  1.0000
  C   C7        1.0  0.94680  0.18340  0.93440  1.0000
  C   C8        1.0  0.94720  0.24720  0.01320  1.0000
  H   H4        1.0  0.91220  0.26970  0.03960  1.0000
  O   O10       1.0  0.87298  0.26190  0.81100  1.0000
  O   O11       1.0  0.88367  0.97560  0.84610  1.0000
  O   O12       1.0  0.83046  0.15850  0.94190  1.0000
  O   O13       1.0  0.94412  0.42950  0.17580  1.0000
  P   P5        1.0  0.11970  0.14122  0.88007  1.0000
  C   C9        1.0  0.05320  0.18340  0.93440  1.0000
  C   C10       1.0  0.05280  0.24720  0.01320  1.0000
  H   H5        1.0  0.08780  0.26970  0.03960  1.0000
  O   O14       1.0  0.12702  0.26190  0.81100  1.0000
  O   O15       1.0  0.11633  0.97560  0.84610  1.0000
  O   O16       1.0  0.16954  0.15850  0.94190  1.0000
  O   O17       1.0  0.05588  0.42950  0.17580  1.0000
  P   P6        1.0  0.00000  0.34140  0.15969  1.0000
  C   C11       1.0  0.00000  0.14820  0.89660  1.0000
  H   H6        1.0  0.00000  0.10000  0.84500  1.0000
  C   C12       1.0  0.00000  0.27840  0.05380  1.0000
  O   O18       1.0  0.00000  0.18930  0.21470  1.0000
  O   O19       1.0  0.44412  0.57050  0.67580  1.0000
  P   P7        1.0  0.61970  0.85878  0.38007  1.0000
  C   C13       1.0  0.55320  0.81660  0.43440  1.0000
  C   C14       1.0  0.55280  0.75280  0.51320  1.0000
  H   H7        1.0  0.58780  0.73030  0.53960  1.0000
  O   O20       1.0  0.62702  0.73810  0.31100  1.0000
  O   O21       1.0  0.61633  0.02440  0.34610  1.0000
  O   O22       1.0  0.66954  0.84150  0.44190  1.0000
  O   O23       1.0  0.55588  0.57050  0.67580  1.0000
  P   P8        1.0  0.50000  0.65860  0.65969  1.0000
  C   C15       1.0  0.50000  0.85180  0.39660  1.0000
  H   H8        1.0  0.50000  0.90000  0.34500  1.0000
  C   C16       1.0  0.50000  0.72160  0.55380  1.0000
  O   O24       1.0  0.50000  0.81070  0.71470  1.0000
  P   P9        1.0  0.38030  0.85878  0.38007  1.0000
  C   C17       1.0  0.44680  0.81660  0.43440  1.0000
  C   C18       1.0  0.44720  0.75280  0.51320  1.0000
  H   H9        1.0  0.41220  0.73030  0.53960  1.0000
  O   O25       1.0  0.37298  0.73810  0.31100  1.0000
  O   O26       1.0  0.38367  0.02440  0.34610  1.0000
  O   O27       1.0  0.33046  0.84150  0.44190  1.0000
  P   P10       1.0  0.88030  0.35878  0.38007  1.0000
  C   C19       1.0  0.94680  0.31660  0.43440  1.0000
  C   C20       1.0  0.94720  0.25280  0.51320  1.0000
  H   H10       1.0  0.91220  0.23030  0.53960  1.0000
  O   O28       1.0  0.87298  0.23810  0.31100  1.0000
  O   O29       1.0  0.88367  0.52440  0.34610  1.0000
  O   O30       1.0  0.83046  0.34150  0.44190  1.0000
  O   O31       1.0  0.94412  0.07050  0.67580  1.0000
  P   P11       1.0  0.11970  0.35878  0.38007  1.0000
  C   C21       1.0  0.05320  0.31660  0.43440  1.0000
  C   C22       1.0  0.05280  0.25280  0.51320  1.0000
  H   H11       1.0  0.08780  0.23030  0.53960  1.0000
  O   O32       1.0  0.12702  0.23810  0.31100  1.0000
  O   O33       1.0  0.11633  0.52440  0.34610  1.0000
  O   O34       1.0  0.16954  0.34150  0.44190  1.0000
  O   O35       1.0  0.05588  0.07050  0.67580  1.0000
  P   P12       1.0  0.00000  0.15860  0.65969  1.0000
  C   C23       1.0  0.00000  0.35180  0.39660  1.0000
  H   H12       1.0  0.00000  0.40000  0.34500  1.0000
  C   C24       1.0  0.00000  0.22160  0.55380  1.0000
  O   O36       1.0  0.00000  0.31070  0.71470  1.0000
  P   P13       1.0  0.61970  0.14122  0.61993  1.0000
  C   C25       1.0  0.55320  0.18340  0.56560  1.0000
  C   C26       1.0  0.55280  0.24720  0.48680  1.0000
  H   H13       1.0  0.58780  0.26970  0.46040  1.0000
  O   O37       1.0  0.62702  0.26190  0.68900  1.0000
  O   O38       1.0  0.61633  0.97560  0.65390  1.0000
  O   O39       1.0  0.66954  0.15850  0.55810  1.0000
  O   O40       1.0  0.55588  0.42950  0.32420  1.0000
  P   P14       1.0  0.50000  0.34140  0.34031  1.0000
  C   C27       1.0  0.50000  0.14820  0.60340  1.0000
  H   H14       1.0  0.50000  0.10000  0.65500  1.0000
  C   C28       1.0  0.50000  0.27840  0.44620  1.0000
  O   O41       1.0  0.50000  0.18930  0.28530  1.0000
  P   P15       1.0  0.38030  0.14122  0.61993  1.0000
  C   C29       1.0  0.44680  0.18340  0.56560  1.0000
  C   C30       1.0  0.44720  0.24720  0.48680  1.0000
  H   H15       1.0  0.41220  0.26970  0.46040  1.0000
  O   O42       1.0  0.37298  0.26190  0.68900  1.0000
  O   O43       1.0  0.38367  0.97560  0.65390  1.0000
  O   O44       1.0  0.33046  0.15850  0.55810  1.0000
  O   O45       1.0  0.44412  0.42950  0.32420  1.0000
  P   P16       1.0  0.11970  0.64122  0.61993  1.0000
  C   C31       1.0  0.05320  0.68340  0.56560  1.0000
  C   C32       1.0  0.05280  0.74720  0.48680  1.0000
  H   H16       1.0  0.08780  0.76970  0.46040  1.0000
  O   O46       1.0  0.12702  0.76190  0.68900  1.0000
  O   O47       1.0  0.11633  0.47560  0.65390  1.0000
  O   O48       1.0  0.16954  0.65850  0.55810  1.0000
  O   O49       1.0  0.05588  0.92950  0.32420  1.0000
  P   P17       1.0  0.00000  0.84140  0.34031  1.0000
  C   C33       1.0  0.00000  0.64820  0.60340  1.0000
  H   H17       1.0  0.00000  0.60000  0.65500  1.0000
  C   C34       1.0  0.00000  0.77840  0.44620  1.0000
  O   O50       1.0  0.00000  0.68930  0.28530  1.0000
  P   P18       1.0  0.88030  0.64122  0.61993  1.0000
  C   C35       1.0  0.94680  0.68340  0.56560  1.0000
  C   C36       1.0  0.94720  0.74720  0.48680  1.0000
  H   H18       1.0  0.91220  0.76970  0.46040  1.0000
  O   O51       1.0  0.87298  0.76190  0.68900  1.0000
  O   O52       1.0  0.88367  0.47560  0.65390  1.0000
  O   O53       1.0  0.83046  0.65850  0.55810  1.0000
  O   O54       1.0  0.94412  0.92950  0.32420  1.0000
  P   P19       1.0  0.38030  0.35878  0.11993  1.0000
  C   C37       1.0  0.44680  0.31660  0.06560  1.0000
  C   C38       1.0  0.44720  0.25280  0.98680  1.0000
  H   H19       1.0  0.41220  0.23030  0.96040  1.0000
  O   O55       1.0  0.37298  0.23810  0.18900  1.0000
  O   O56       1.0  0.38367  0.52440  0.15390  1.0000
  O   O57       1.0  0.33046  0.34150  0.05810  1.0000
  O   O58       1.0  0.44412  0.07050  0.82420  1.0000
  P   P20       1.0  0.50000  0.15860  0.84031  1.0000
  C   C39       1.0  0.50000  0.35180  0.10340  1.0000
  H   H20       1.0  0.50000  0.40000  0.15500  1.0000
  C   C40       1.0  0.50000  0.22160  0.94620  1.0000
  O   O59       1.0  0.50000  0.31070  0.78530  1.0000
  P   P21       1.0  0.61970  0.35878  0.11993  1.0000
  C   C41       1.0  0.55320  0.31660  0.06560  1.0000
  C   C42       1.0  0.55280  0.25280  0.98680  1.0000
  H   H21       1.0  0.58780  0.23030  0.96040  1.0000
  O   O60       1.0  0.62702  0.23810  0.18900  1.0000
  O   O61       1.0  0.61633  0.52440  0.15390  1.0000
  O   O62       1.0  0.66954  0.34150  0.05810  1.0000
  O   O63       1.0  0.55588  0.07050  0.82420  1.0000
  P   P22       1.0  0.88030  0.85878  0.11993  1.0000
  C   C43       1.0  0.94680  0.81660  0.06560  1.0000
  C   C44       1.0  0.94720  0.75280  0.98680  1.0000
  H   H22       1.0  0.91220  0.73030  0.96040  1.0000
  O   O64       1.0  0.87298  0.73810  0.18900  1.0000
  O   O65       1.0  0.88367  0.02440  0.15390  1.0000
  O   O66       1.0  0.83046  0.84150  0.05810  1.0000
  C   C45       1.0  0.00000  0.85180  0.10340  1.0000
  C   C46       1.0  0.00000  0.72160  0.94620  1.0000
  H   H23       1.0  0.00000  0.90000  0.15500  1.0000
  P   P23       1.0  0.00000  0.65860  0.84031  1.0000
  O   O67       1.0  0.94412  0.57050  0.82420  1.0000
  O   O68       1.0  0.00000  0.81070  0.78530  1.0000
  P   P24       1.0  0.11970  0.85878  0.11993  1.0000
  C   C47       1.0  0.05320  0.81660  0.06560  1.0000
  C   C48       1.0  0.05280  0.75280  0.98680  1.0000
  H   H24       1.0  0.08780  0.73030  0.96040  1.0000
  O   O69       1.0  0.12702  0.73810  0.18900  1.0000
  O   O70       1.0  0.11633  0.02440  0.15390  1.0000
  O   O71       1.0  0.16954  0.84150  0.05810  1.0000
  O   O72       1.0  0.05588  0.57050  0.82420  1.0000
  Zn  Zn1       1.0  0.42319  0.39968  0.74812  1.0000
  Zn  Zn2       1.0  0.92319  0.60032  0.24812  1.0000
  Zn  Zn3       1.0  0.92319  0.89968  0.74812  1.0000
  Zn  Zn4       1.0  0.57681  0.39968  0.74812  1.0000
  Zn  Zn5       1.0  0.57681  0.10032  0.24812  1.0000
  Zn  Zn6       1.0  0.07681  0.89968  0.74812  1.0000
  Zn  Zn7       1.0  0.07681  0.60032  0.24812  1.0000
  Zn  Zn8       1.0  0.28781  0.50000  0.00000  1.0000
  Zn  Zn9       1.0  0.78781  0.00000  0.00000  1.0000
  Zn  Zn10      1.0  0.71219  0.00000  0.50000  1.0000
  Zn  Zn11      1.0  0.21219  0.50000  0.50000  1.0000
  Zn  Zn12      1.0  0.71219  0.50000  0.00000  1.0000
  Zn  Zn13      1.0  0.21219  0.00000  0.00000  1.0000
  Zn  Zn14      1.0  0.28781  0.00000  0.50000  1.0000
  Zn  Zn15      1.0  0.78781  0.50000  0.50000  1.0000
  Zn  Zn16      1.0  0.57681  0.89968  0.75188  1.0000
  Zn  Zn17      1.0  0.07681  0.39968  0.75188  1.0000
  Zn  Zn18      1.0  0.42319  0.60032  0.25188  1.0000
  Zn  Zn19      1.0  0.92319  0.10032  0.25188  1.0000
  Zn  Zn20      1.0  0.57681  0.60032  0.25188  1.0000
  Zn  Zn21      1.0  0.07681  0.10032  0.25188  1.0000
  Zn  Zn22      1.0  0.42319  0.89968  0.75188  1.0000
  Zn  Zn23      1.0  0.92319  0.39968  0.75188  1.0000
  Zn  Zn24      1.0  0.42319  0.10032  0.24812  1.0000
