data_image0
_chemical_formula_structural       P3CH2CH2CH2CH2CH2CH2CH2CH2CH2N3O3HO3HO3P3CH2CH2CH2CH2CH2CH2CH2CH2CH2N3O3HO3HO3H2CH2CH2N3O3HO3HO3P3CH2CH2CH2CH2CH2CH2CP3CH2CH2CH2CH2CH2CH2CH2CH2CH2N3O3HO3HO3CoCaCoCaCoCaCoCa
_chemical_formula_sum              "P12 C36 H80 N12 O36 Co4 Ca4"
_cell_length_a       14.045
_cell_length_b       10.174
_cell_length_c       18.339
_cell_angle_alpha    90
_cell_angle_beta     106.597
_cell_angle_gamma    90

_space_group_name_H-M_alt    "P 1"
_space_group_IT_number       1

loop_
  _space_group_symop_operation_xyz
  'x, y, z'

loop_
  _atom_site_type_symbol
  _atom_site_label
  _atom_site_symmetry_multiplicity
  _atom_site_fract_x
  _atom_site_fract_y
  _atom_site_fract_z
  _atom_site_occupancy
  P   P1        1.0  0.54704  0.99881  0.82217  1.0000
  P   P2        1.0  0.25805  0.26872  0.74087  1.0000
  P   P3        1.0  0.56555  0.44892  0.91221  1.0000
  C   C1        1.0  0.40550  0.19520  0.63110  1.0000
  H   H1        1.0  0.34450  0.15540  0.63530  1.0000
  H   H2        1.0  0.41840  0.16270  0.58510  1.0000
  C   C2        1.0  0.39520  0.34420  0.62780  1.0000
  H   H3        1.0  0.33040  0.36820  0.59470  1.0000
  H   H4        1.0  0.44540  0.38170  0.60700  1.0000
  C   C3        1.0  0.47100  0.51900  0.72110  1.0000
  H   H5        1.0  0.46450  0.56520  0.76570  1.0000
  H   H6        1.0  0.45040  0.57770  0.67780  1.0000
  C   C4        1.0  0.57710  0.47710  0.73290  1.0000
  H   H7        1.0  0.62130  0.54810  0.75650  1.0000
  H   H8        1.0  0.58800  0.45800  0.68410  1.0000
  C   C5        1.0  0.66010  0.25720  0.75350  1.0000
  H   H9        1.0  0.68970  0.19300  0.79250  1.0000
  H   H10       1.0  0.71290  0.30090  0.73840  1.0000
  C   C6        1.0  0.58820  0.18960  0.68460  1.0000
  H   H11       1.0  0.57680  0.24620  0.64030  1.0000
  H   H12       1.0  0.61760  0.10840  0.67350  1.0000
  C   C7        1.0  0.48250  0.01960  0.72200  1.0000
  H   H13       1.0  0.51140  0.96230  0.69170  1.0000
  H   H14       1.0  0.41300  0.99620  0.71250  1.0000
  C   C8        1.0  0.30840  0.42440  0.72040  1.0000
  H   H15       1.0  0.26370  0.46410  0.67550  1.0000
  H   H16       1.0  0.31600  0.48440  0.76280  1.0000
  C   C9        1.0  0.65500  0.39080  0.86480  1.0000
  H   H17       1.0  0.70380  0.45880  0.86580  1.0000
  H   H18       1.0  0.68940  0.31410  0.89100  1.0000
  N   N1        1.0  0.49120  0.16040  0.70010  1.0000
  N   N2        1.0  0.40750  0.39860  0.70740  1.0000
  N   N3        1.0  0.60040  0.35610  0.78320  1.0000
  O   O1        1.0  0.54700  0.13790  0.85411  1.0000
  O   O2        1.0  0.49940  0.89640  0.85700  1.0000
  O   O3        1.0  0.65810  0.96400  0.82870  1.0000
  H   H19       1.0  0.66930  0.88770  0.84300  1.0000
  O   O4        1.0  0.35170  0.19080  0.78035  1.0000
  O   O5        1.0  0.19140  0.20540  0.67127  1.0000
  O   O6        1.0  0.19530  0.29820  0.79660  1.0000
  H   H20       1.0  0.23150  0.32770  0.83650  1.0000
  O   O7        1.0  0.46940  0.38090  0.86516  1.0000
  O   O8        1.0  0.55740  0.59750  0.90415  1.0000
  O   O9        1.0  0.60060  0.40390  0.99413  1.0000
  P   P4        1.0  0.95296  0.49881  0.67783  1.0000
  P   P5        1.0  0.24195  0.76872  0.75913  1.0000
  P   P6        1.0  0.93445  0.94892  0.58779  1.0000
  C   C10       1.0  0.09450  0.69520  0.86890  1.0000
  H   H21       1.0  0.15550  0.65540  0.86470  1.0000
  H   H22       1.0  0.08160  0.66270  0.91490  1.0000
  C   C11       1.0  0.10480  0.84420  0.87220  1.0000
  H   H23       1.0  0.16960  0.86820  0.90530  1.0000
  H   H24       1.0  0.05460  0.88170  0.89300  1.0000
  C   C12       1.0  0.02900  0.01900  0.77890  1.0000
  H   H25       1.0  0.03550  0.06520  0.73430  1.0000
  H   H26       1.0  0.04960  0.07770  0.82220  1.0000
  C   C13       1.0  0.92290  0.97710  0.76710  1.0000
  H   H27       1.0  0.87870  0.04810  0.74350  1.0000
  H   H28       1.0  0.91200  0.95800  0.81590  1.0000
  C   C14       1.0  0.83990  0.75720  0.74650  1.0000
  H   H29       1.0  0.81030  0.69300  0.70750  1.0000
  H   H30       1.0  0.78710  0.80090  0.76160  1.0000
  C   C15       1.0  0.91180  0.68960  0.81540  1.0000
  H   H31       1.0  0.92320  0.74620  0.85970  1.0000
  H   H32       1.0  0.88240  0.60840  0.82650  1.0000
  C   C16       1.0  0.01750  0.51960  0.77800  1.0000
  H   H33       1.0  0.98860  0.46230  0.80830  1.0000
  H   H34       1.0  0.08700  0.49620  0.78750  1.0000
  C   C17       1.0  0.19160  0.92440  0.77960  1.0000
  H   H35       1.0  0.23630  0.96410  0.82450  1.0000
  H   H36       1.0  0.18400  0.98440  0.73720  1.0000
  C   C18       1.0  0.84500  0.89080  0.63520  1.0000
  H   H37       1.0  0.79620  0.95880  0.63420  1.0000
  H   H38       1.0  0.81060  0.81410  0.60900  1.0000
  N   N4        1.0  0.00880  0.66040  0.79990  1.0000
  N   N5        1.0  0.09250  0.89860  0.79260  1.0000
  N   N6        1.0  0.89960  0.85610  0.71680  1.0000
  O   O10       1.0  0.95300  0.63790  0.64589  1.0000
  O   O11       1.0  0.00060  0.39640  0.64300  1.0000
  O   O12       1.0  0.84190  0.46400  0.67130  1.0000
  H   H39       1.0  0.83070  0.38770  0.65700  1.0000
  O   O13       1.0  0.14830  0.69080  0.71965  1.0000
  O   O14       1.0  0.30860  0.70540  0.82873  1.0000
  O   O15       1.0  0.30470  0.79820  0.70340  1.0000
  H   H40       1.0  0.26850  0.82770  0.66350  1.0000
  O   O16       1.0  0.03060  0.88090  0.63484  1.0000
  O   O17       1.0  0.94260  0.09750  0.59585  1.0000
  O   O18       1.0  0.89940  0.90390  0.50587  1.0000
  H   H41       1.0  0.48860  0.03770  0.30830  1.0000
  H   H42       1.0  0.58700  0.00380  0.28750  1.0000
  C   C19       1.0  0.69160  0.57560  0.27960  1.0000
  H   H43       1.0  0.73630  0.53590  0.32450  1.0000
  H   H44       1.0  0.68400  0.51560  0.23720  1.0000
  C   C20       1.0  0.34500  0.60920  0.13520  1.0000
  H   H45       1.0  0.29620  0.54120  0.13420  1.0000
  H   H46       1.0  0.31060  0.68590  0.10900  1.0000
  N   N7        1.0  0.50880  0.83960  0.29990  1.0000
  N   N8        1.0  0.59250  0.60140  0.29260  1.0000
  N   N9        1.0  0.39960  0.64390  0.21680  1.0000
  O   O19       1.0  0.45300  0.86210  0.14589  1.0000
  O   O20       1.0  0.50060  0.10360  0.14300  1.0000
  O   O21       1.0  0.34190  0.03600  0.17130  1.0000
  H   H47       1.0  0.33070  0.11230  0.15700  1.0000
  O   O22       1.0  0.64830  0.80920  0.21965  1.0000
  O   O23       1.0  0.80860  0.79460  0.32873  1.0000
  O   O24       1.0  0.80470  0.70180  0.20340  1.0000
  H   H48       1.0  0.76850  0.67230  0.16350  1.0000
  O   O25       1.0  0.53060  0.61910  0.13484  1.0000
  O   O26       1.0  0.44260  0.40250  0.09585  1.0000
  O   O27       1.0  0.39940  0.59610  0.00587  1.0000
  P   P7        1.0  0.45296  0.00119  0.17783  1.0000
  P   P8        1.0  0.74195  0.73128  0.25913  1.0000
  P   P9        1.0  0.43445  0.55108  0.08779  1.0000
  C   C21       1.0  0.59450  0.80480  0.36890  1.0000
  H   H49       1.0  0.65550  0.84460  0.36470  1.0000
  H   H50       1.0  0.58160  0.83730  0.41490  1.0000
  C   C22       1.0  0.60480  0.65580  0.37220  1.0000
  H   H51       1.0  0.66960  0.63180  0.40530  1.0000
  H   H52       1.0  0.55460  0.61830  0.39300  1.0000
  C   C23       1.0  0.52900  0.48100  0.27890  1.0000
  H   H53       1.0  0.53550  0.43480  0.23430  1.0000
  H   H54       1.0  0.54960  0.42230  0.32220  1.0000
  C   C24       1.0  0.42290  0.52290  0.26710  1.0000
  H   H55       1.0  0.37870  0.45190  0.24350  1.0000
  H   H56       1.0  0.41200  0.54200  0.31590  1.0000
  C   C25       1.0  0.33990  0.74280  0.24650  1.0000
  H   H57       1.0  0.31030  0.80700  0.20750  1.0000
  H   H58       1.0  0.28710  0.69910  0.26160  1.0000
  C   C26       1.0  0.41180  0.81040  0.31540  1.0000
  H   H59       1.0  0.42320  0.75380  0.35970  1.0000
  H   H60       1.0  0.38240  0.89160  0.32650  1.0000
  C   C27       1.0  0.51750  0.98040  0.27800  1.0000
  P   P10       1.0  0.04704  0.50119  0.32217  1.0000
  P   P11       1.0  0.75805  0.23128  0.24087  1.0000
  P   P12       1.0  0.06555  0.05108  0.41221  1.0000
  C   C28       1.0  0.90550  0.30480  0.13110  1.0000
  H   H61       1.0  0.84450  0.34460  0.13530  1.0000
  H   H62       1.0  0.91840  0.33730  0.08510  1.0000
  C   C29       1.0  0.89520  0.15580  0.12780  1.0000
  H   H63       1.0  0.83040  0.13180  0.09470  1.0000
  H   H64       1.0  0.94540  0.11830  0.10700  1.0000
  C   C30       1.0  0.97100  0.98100  0.22110  1.0000
  H   H65       1.0  0.96450  0.93480  0.26570  1.0000
  H   H66       1.0  0.95040  0.92230  0.17780  1.0000
  C   C31       1.0  0.07710  0.02290  0.23290  1.0000
  H   H67       1.0  0.12130  0.95190  0.25650  1.0000
  H   H68       1.0  0.08800  0.04200  0.18410  1.0000
  C   C32       1.0  0.16010  0.24280  0.25350  1.0000
  H   H69       1.0  0.18970  0.30700  0.29250  1.0000
  H   H70       1.0  0.21290  0.19910  0.23840  1.0000
  C   C33       1.0  0.08820  0.31040  0.18460  1.0000
  H   H71       1.0  0.07680  0.25380  0.14030  1.0000
  H   H72       1.0  0.11760  0.39160  0.17350  1.0000
  C   C34       1.0  0.98250  0.48040  0.22200  1.0000
  H   H73       1.0  0.01140  0.53770  0.19170  1.0000
  H   H74       1.0  0.91300  0.50380  0.21250  1.0000
  C   C35       1.0  0.80840  0.07560  0.22040  1.0000
  H   H75       1.0  0.76370  0.03590  0.17550  1.0000
  H   H76       1.0  0.81600  0.01560  0.26280  1.0000
  C   C36       1.0  0.15500  0.10920  0.36480  1.0000
  H   H77       1.0  0.20380  0.04120  0.36580  1.0000
  H   H78       1.0  0.18940  0.18590  0.39100  1.0000
  N   N10       1.0  0.99120  0.33960  0.20010  1.0000
  N   N11       1.0  0.90750  0.10140  0.20740  1.0000
  N   N12       1.0  0.10040  0.14390  0.28320  1.0000
  O   O28       1.0  0.04700  0.36210  0.35411  1.0000
  O   O29       1.0  0.99940  0.60360  0.35700  1.0000
  O   O30       1.0  0.15810  0.53600  0.32870  1.0000
  H   H79       1.0  0.16930  0.61230  0.34300  1.0000
  O   O31       1.0  0.85170  0.30920  0.28035  1.0000
  O   O32       1.0  0.69140  0.29460  0.17127  1.0000
  O   O33       1.0  0.69530  0.20180  0.29660  1.0000
  H   H80       1.0  0.73150  0.17230  0.33650  1.0000
  O   O34       1.0  0.96940  0.11910  0.36516  1.0000
  O   O35       1.0  0.05740  0.90250  0.40415  1.0000
  O   O36       1.0  0.10060  0.09610  0.49413  1.0000
  Co  Co1       1.0  0.47737  0.27076  0.78264  1.0000
  Ca  Ca1       1.0  0.05347  0.24568  0.57166  1.0000
  Co  Co2       1.0  0.52263  0.72924  0.21736  1.0000
  Ca  Ca2       1.0  0.94653  0.75432  0.42834  1.0000
  Co  Co3       1.0  0.02263  0.77076  0.71736  1.0000
  Ca  Ca3       1.0  0.44653  0.74568  0.92834  1.0000
  Co  Co4       1.0  0.97737  0.22924  0.28264  1.0000
  Ca  Ca4       1.0  0.55347  0.25432  0.07166  1.0000
