data_image0
_chemical_formula_structural       P3CH2CH2CH2CH2CH2CH2CH2CH2CH2N3O3HO3HO3P3CH2CH2CH2CH2CH2CH2CH2CH2CH2N3O3HO3HO3H2CH2CH2N3O3HO3HO3P3CH2CH2CH2CH2CH2CH2CP3CH2CH2CH2CH2CH2CH2CH2CH2CH2N3O3HO3HO3CoCaCoCaCoCaCoCa
_chemical_formula_sum              "P12 C36 H80 N12 O36 Co4 Ca4"
_cell_length_a       13.318
_cell_length_b       10.2245
_cell_length_c       19.217
_cell_angle_alpha    90
_cell_angle_beta     109.6
_cell_angle_gamma    90

_space_group_name_H-M_alt    "P 1"
_space_group_IT_number       1

loop_
  _space_group_symop_operation_xyz
  'x, y, z'

loop_
  _atom_site_type_symbol
  _atom_site_label
  _atom_site_symmetry_multiplicity
  _atom_site_fract_x
  _atom_site_fract_y
  _atom_site_fract_z
  _atom_site_occupancy
  P   P1        1.0  0.77908  0.00668  0.05154  1.0000
  P   P2        1.0  0.76505  0.73888  0.25071  1.0000
  P   P3        1.0  0.65976  0.55689  0.00006  1.0000
  C   C1        1.0  0.99050  0.81210  0.21930  1.0000
  H   H1        1.0  0.95600  0.85060  0.25160  1.0000
  H   H2        1.0  0.06290  0.84510  0.23370  1.0000
  C   C2        1.0  0.99170  0.66430  0.22630  1.0000
  H   H3        1.0  0.04470  0.62770  0.20750  1.0000
  H   H4        1.0  0.01020  0.63980  0.27780  1.0000
  C   C3        1.0  0.89200  0.49150  0.14020  1.0000
  H   H5        1.0  0.82430  0.44580  0.12270  1.0000
  H   H6        1.0  0.94510  0.43270  0.17160  1.0000
  C   C4        1.0  0.92430  0.53450  0.07540  1.0000
  H   H7        1.0  0.99980  0.55490  0.09230  1.0000
  H   H8        1.0  0.91160  0.46400  0.03970  1.0000
  C   C5        1.0  0.93130  0.75340  0.02100  1.0000
  H   H9        1.0  0.88740  0.81740  0.98690  1.0000
  H   H10       1.0  0.97730  0.71180  0.99760  1.0000
  C   C6        1.0  0.99770  0.81970  0.09160  1.0000
  H   H11       1.0  0.02650  0.90070  0.08000  1.0000
  H   H12       1.0  0.05700  0.76360  0.11800  1.0000
  C   C7        1.0  0.89380  0.98640  0.13460  1.0000
  H   H13       1.0  0.95070  0.04430  0.13300  1.0000
  H   H14       1.0  0.87470  0.00890  0.17760  1.0000
  C   C8        1.0  0.81850  0.58380  0.23250  1.0000
  H   H15       1.0  0.86350  0.54480  0.27840  1.0000
  H   H16       1.0  0.76090  0.52360  0.20870  1.0000
  C   C9        1.0  0.76950  0.61720  0.97200  1.0000
  H   H17       1.0  0.79110  0.55030  0.94410  1.0000
  H   H18       1.0  0.74670  0.69350  0.94060  1.0000
  N   N1        1.0  0.88250  0.61110  0.18270  1.0000
  N   N2        1.0  0.93060  0.84840  0.14020  1.0000
  N   N3        1.0  0.86170  0.65240  0.03950  1.0000
  O   O1        1.0  0.73330  0.86770  0.03610  1.0000
  O   O2        1.0  0.70650  0.10800  0.06100  1.0000
  O   O3        1.0  0.82280  0.04200  0.98780  1.0000
  H   H19       1.0  0.80860  0.11850  0.97560  1.0000
  O   O4        1.0  0.74820  0.81450  0.17890  1.0000
  O   O5        1.0  0.83540  0.80230  0.31890  1.0000
  O   O6        1.0  0.65600  0.71020  0.26150  1.0000
  H   H20       1.0  0.61530  0.67590  0.22400  1.0000
  O   O7        1.0  0.68130  0.62540  0.07460  1.0000
  O   O8        1.0  0.55590  0.59820  0.94230  1.0000
  O   O9        1.0  0.66820  0.40900  0.00860  1.0000
  P   P4        1.0  0.72092  0.50668  0.44846  1.0000
  P   P5        1.0  0.73495  0.23888  0.24929  1.0000
  P   P6        1.0  0.84024  0.05689  0.49994  1.0000
  C   C10       1.0  0.50950  0.31210  0.28070  1.0000
  H   H21       1.0  0.54400  0.35060  0.24840  1.0000
  H   H22       1.0  0.43710  0.34510  0.26630  1.0000
  C   C11       1.0  0.50830  0.16430  0.27370  1.0000
  H   H23       1.0  0.45530  0.12770  0.29250  1.0000
  H   H24       1.0  0.48980  0.13980  0.22220  1.0000
  C   C12       1.0  0.60800  0.99150  0.35980  1.0000
  H   H25       1.0  0.67570  0.94580  0.37730  1.0000
  H   H26       1.0  0.55490  0.93270  0.32840  1.0000
  C   C13       1.0  0.57570  0.03450  0.42460  1.0000
  H   H27       1.0  0.50020  0.05490  0.40770  1.0000
  H   H28       1.0  0.58840  0.96400  0.46030  1.0000
  C   C14       1.0  0.56870  0.25340  0.47900  1.0000
  H   H29       1.0  0.61260  0.31740  0.51310  1.0000
  H   H30       1.0  0.52270  0.21180  0.50240  1.0000
  C   C15       1.0  0.50230  0.31970  0.40840  1.0000
  H   H31       1.0  0.47350  0.40070  0.42000  1.0000
  H   H32       1.0  0.44300  0.26360  0.38200  1.0000
  C   C16       1.0  0.60620  0.48640  0.36540  1.0000
  H   H33       1.0  0.54930  0.54430  0.36700  1.0000
  H   H34       1.0  0.62530  0.50890  0.32240  1.0000
  C   C17       1.0  0.68150  0.08380  0.26750  1.0000
  H   H35       1.0  0.63650  0.04480  0.22160  1.0000
  H   H36       1.0  0.73910  0.02360  0.29130  1.0000
  C   C18       1.0  0.73050  0.11720  0.52800  1.0000
  H   H37       1.0  0.70890  0.05030  0.55590  1.0000
  H   H38       1.0  0.75330  0.19350  0.55940  1.0000
  N   N4        1.0  0.61750  0.11110  0.31730  1.0000
  N   N5        1.0  0.56940  0.34840  0.35980  1.0000
  N   N6        1.0  0.63830  0.15240  0.46050  1.0000
  O   O10       1.0  0.76670  0.36770  0.46390  1.0000
  O   O11       1.0  0.79350  0.60800  0.43900  1.0000
  O   O12       1.0  0.67720  0.54200  0.51220  1.0000
  H   H39       1.0  0.69140  0.61850  0.52440  1.0000
  O   O13       1.0  0.75180  0.31450  0.32110  1.0000
  O   O14       1.0  0.66460  0.30230  0.18110  1.0000
  O   O15       1.0  0.84400  0.21020  0.23850  1.0000
  H   H40       1.0  0.88470  0.17590  0.27600  1.0000
  O   O16       1.0  0.81870  0.12540  0.42540  1.0000
  O   O17       1.0  0.94410  0.09820  0.55770  1.0000
  O   O18       1.0  0.83180  0.90900  0.49140  1.0000
  H   H41       1.0  0.04930  0.95570  0.86700  1.0000
  H   H42       1.0  0.12530  0.99110  0.82240  1.0000
  C   C19       1.0  0.18150  0.41620  0.76750  1.0000
  H   H43       1.0  0.13650  0.45520  0.72160  1.0000
  H   H44       1.0  0.23910  0.47640  0.79130  1.0000
  C   C20       1.0  0.23050  0.38280  0.02800  1.0000
  H   H45       1.0  0.20890  0.44970  0.05590  1.0000
  H   H46       1.0  0.25330  0.30650  0.05940  1.0000
  N   N7        1.0  0.11750  0.38890  0.81730  1.0000
  N   N8        1.0  0.06940  0.15160  0.85980  1.0000
  N   N9        1.0  0.13830  0.34760  0.96050  1.0000
  O   O19       1.0  0.26670  0.13230  0.96390  1.0000
  O   O20       1.0  0.29350  0.89200  0.93900  1.0000
  O   O21       1.0  0.17720  0.95800  0.01220  1.0000
  H   H47       1.0  0.19140  0.88150  0.02440  1.0000
  O   O22       1.0  0.25180  0.18550  0.82110  1.0000
  O   O23       1.0  0.16460  0.19770  0.68110  1.0000
  O   O24       1.0  0.34400  0.28980  0.73850  1.0000
  H   H48       1.0  0.38470  0.32410  0.77600  1.0000
  O   O25       1.0  0.31870  0.37460  0.92540  1.0000
  O   O26       1.0  0.44410  0.40180  0.05770  1.0000
  O   O27       1.0  0.33180  0.59100  0.99140  1.0000
  P   P7        1.0  0.22092  0.99332  0.94846  1.0000
  P   P8        1.0  0.23495  0.26112  0.74929  1.0000
  P   P9        1.0  0.34024  0.44311  0.99994  1.0000
  C   C21       1.0  0.00950  0.18790  0.78070  1.0000
  H   H49       1.0  0.04400  0.14940  0.74840  1.0000
  H   H50       1.0  0.93710  0.15490  0.76630  1.0000
  C   C22       1.0  0.00830  0.33570  0.77370  1.0000
  H   H51       1.0  0.95530  0.37230  0.79250  1.0000
  H   H52       1.0  0.98980  0.36020  0.72220  1.0000
  C   C23       1.0  0.10800  0.50850  0.85980  1.0000
  H   H53       1.0  0.17570  0.55420  0.87730  1.0000
  H   H54       1.0  0.05490  0.56730  0.82840  1.0000
  C   C24       1.0  0.07570  0.46550  0.92460  1.0000
  H   H55       1.0  0.00020  0.44510  0.90770  1.0000
  H   H56       1.0  0.08840  0.53600  0.96030  1.0000
  C   C25       1.0  0.06870  0.24660  0.97900  1.0000
  H   H57       1.0  0.11260  0.18260  0.01310  1.0000
  H   H58       1.0  0.02270  0.28820  0.00240  1.0000
  C   C26       1.0  0.00230  0.18030  0.90840  1.0000
  H   H59       1.0  0.97350  0.09930  0.92000  1.0000
  H   H60       1.0  0.94300  0.23640  0.88200  1.0000
  C   C27       1.0  0.10620  0.01360  0.86540  1.0000
  P   P10       1.0  0.27908  0.49332  0.55154  1.0000
  P   P11       1.0  0.26505  0.76112  0.75071  1.0000
  P   P12       1.0  0.15976  0.94311  0.50006  1.0000
  C   C28       1.0  0.49050  0.68790  0.71930  1.0000
  H   H61       1.0  0.45600  0.64940  0.75160  1.0000
  H   H62       1.0  0.56290  0.65490  0.73370  1.0000
  C   C29       1.0  0.49170  0.83570  0.72630  1.0000
  H   H63       1.0  0.54470  0.87230  0.70750  1.0000
  H   H64       1.0  0.51020  0.86020  0.77780  1.0000
  C   C30       1.0  0.39200  0.00850  0.64020  1.0000
  H   H65       1.0  0.32430  0.05420  0.62270  1.0000
  H   H66       1.0  0.44510  0.06730  0.67160  1.0000
  C   C31       1.0  0.42430  0.96550  0.57540  1.0000
  H   H67       1.0  0.49980  0.94510  0.59230  1.0000
  H   H68       1.0  0.41160  0.03600  0.53970  1.0000
  C   C32       1.0  0.43130  0.74660  0.52100  1.0000
  H   H69       1.0  0.38740  0.68260  0.48690  1.0000
  H   H70       1.0  0.47730  0.78820  0.49760  1.0000
  C   C33       1.0  0.49770  0.68030  0.59160  1.0000
  H   H71       1.0  0.52650  0.59930  0.58000  1.0000
  H   H72       1.0  0.55700  0.73640  0.61800  1.0000
  C   C34       1.0  0.39380  0.51360  0.63460  1.0000
  H   H73       1.0  0.45070  0.45570  0.63300  1.0000
  H   H74       1.0  0.37470  0.49110  0.67760  1.0000
  C   C35       1.0  0.31850  0.91620  0.73250  1.0000
  H   H75       1.0  0.36350  0.95520  0.77840  1.0000
  H   H76       1.0  0.26090  0.97640  0.70870  1.0000
  C   C36       1.0  0.26950  0.88280  0.47200  1.0000
  H   H77       1.0  0.29110  0.94970  0.44410  1.0000
  H   H78       1.0  0.24670  0.80650  0.44060  1.0000
  N   N10       1.0  0.38250  0.88890  0.68270  1.0000
  N   N11       1.0  0.43060  0.65160  0.64020  1.0000
  N   N12       1.0  0.36170  0.84760  0.53950  1.0000
  O   O28       1.0  0.23330  0.63230  0.53610  1.0000
  O   O29       1.0  0.20650  0.39200  0.56100  1.0000
  O   O30       1.0  0.32280  0.45800  0.48780  1.0000
  H   H79       1.0  0.30860  0.38150  0.47560  1.0000
  O   O31       1.0  0.24820  0.68550  0.67890  1.0000
  O   O32       1.0  0.33540  0.69770  0.81890  1.0000
  O   O33       1.0  0.15600  0.78980  0.76150  1.0000
  H   H80       1.0  0.11530  0.82410  0.72400  1.0000
  O   O34       1.0  0.18130  0.87460  0.57460  1.0000
  O   O35       1.0  0.05590  0.90180  0.44230  1.0000
  O   O36       1.0  0.16820  0.09100  0.50860  1.0000
  Co  Co1       1.0  0.80500  0.73707  0.10869  1.0000
  Ca  Ca1       1.0  0.91931  0.75958  0.44143  1.0000
  Co  Co2       1.0  0.19500  0.26293  0.89131  1.0000
  Ca  Ca2       1.0  0.08069  0.24042  0.55857  1.0000
  Co  Co3       1.0  0.69500  0.23707  0.39131  1.0000
  Ca  Ca3       1.0  0.58069  0.25958  0.05857  1.0000
  Co  Co4       1.0  0.30500  0.76293  0.60869  1.0000
  Ca  Ca4       1.0  0.41931  0.74042  0.94143  1.0000
