data_image0
_chemical_formula_structural       N4C2HCHCHCHC4HCHCHCHC3HCHCHCHCHCHN4C3HCHCHCHC5HCHCHCHCHCHCHCHCHCHC4HCHCHCHC3HCHCHCHCHCHN4C2HCHCHCHC3HCHCHCHC5HCHCHCHCHCHCHCHCHCHN4CHCHN4C2HCHCHCHC4HCHCHCHC3HCHCHCHCHC5HCHCHCHCHCHCHCHCHCHN4C3HCHCHCHCHN4C2HCHCHCHC4HCHCHCHC3HCHCHCHCHCHN4C3HCHCHCHC5HCHCHCHCHCHCHCHSO7C2HC2HC2HC4HC2HC2HC2SO7C2HC2HC2HC2SO7CHC2SO7C2HC2HCOHOHOHOHZn8
_chemical_formula_sum              "N32 C192 H128 S4 O32 Zn8"
_cell_length_a       10.9944
_cell_length_b       22.165
_cell_length_c       18.7012
_cell_angle_alpha    90
_cell_angle_beta     90.251
_cell_angle_gamma    90

_space_group_name_H-M_alt    "P 1"
_space_group_IT_number       1

loop_
  _space_group_symop_operation_xyz
  'x, y, z'

loop_
  _atom_site_type_symbol
  _atom_site_label
  _atom_site_symmetry_multiplicity
  _atom_site_fract_x
  _atom_site_fract_y
  _atom_site_fract_z
  _atom_site_occupancy
  N   N1        1.0  0.83660  0.29010  0.10070  1.0000
  N   N2        1.0  0.85800  0.36740  0.17340  1.0000
  N   N3        1.0  0.72340  0.55030  0.36660  1.0000
  N   N4        1.0  0.70940  0.63900  0.41990  1.0000
  C   C1        1.0  0.87670  0.41230  0.29210  1.0000
  C   C2        1.0  0.95670  0.36570  0.31700  1.0000
  H   H1        1.0  0.97700  0.33310  0.28620  1.0000
  C   C3        1.0  0.00300  0.36760  0.38310  1.0000
  H   H2        1.0  0.05680  0.33670  0.39850  1.0000
  C   C4        1.0  0.97360  0.41470  0.43040  1.0000
  H   H3        1.0  0.00720  0.41470  0.47730  1.0000
  C   C5        1.0  0.89820  0.46000  0.41030  1.0000
  H   H4        1.0  0.88090  0.49170  0.44290  1.0000
  C   C6        1.0  0.84400  0.46070  0.34050  1.0000
  C   C7        1.0  0.76110  0.50440  0.31730  1.0000
  C   C8        1.0  0.70790  0.50480  0.24950  1.0000
  C   C9        1.0  0.61950  0.54760  0.22620  1.0000
  H   H5        1.0  0.59440  0.57850  0.25810  1.0000
  C   C10       1.0  0.57060  0.54530  0.15990  1.0000
  H   H6        1.0  0.51100  0.57400  0.14590  1.0000
  C   C11       1.0  0.60800  0.50000  0.11140  1.0000
  H   H7        1.0  0.57320  0.49900  0.06480  1.0000
  C   C12       1.0  0.69200  0.45820  0.12960  1.0000
  H   H8        1.0  0.71590  0.42870  0.09570  1.0000
  C   C13       1.0  0.82680  0.41400  0.22380  1.0000
  C   C14       1.0  0.74500  0.45800  0.19940  1.0000
  C   C15       1.0  0.79460  0.31760  0.15800  1.0000
  H   H9        1.0  0.72720  0.30370  0.18510  1.0000
  C   C16       1.0  0.93430  0.32540  0.07880  1.0000
  H   H10       1.0  0.98480  0.31690  0.03900  1.0000
  C   C17       1.0  0.94660  0.37300  0.12190  1.0000
  H   H11       1.0  0.00470  0.40450  0.11790  1.0000
  C   C18       1.0  0.63310  0.54540  0.41690  1.0000
  H   H12       1.0  0.58430  0.51150  0.42720  1.0000
  C   C19       1.0  0.76540  0.60750  0.36890  1.0000
  H   H13       1.0  0.82620  0.62280  0.33830  1.0000
  C   C20       1.0  0.62540  0.60010  0.44920  1.0000
  H   H14       1.0  0.57230  0.61050  0.48680  1.0000
  N   N5        1.0  0.93260  0.17920  0.82530  1.0000
  N   N6        1.0  0.86330  0.10740  0.75550  1.0000
  N   N7        1.0  0.57130  0.91550  0.66130  1.0000
  N   N8        1.0  0.53400  0.82300  0.62430  1.0000
  C   C21       1.0  0.78150  0.06130  0.73020  1.0000
  C   C22       1.0  0.75210  0.05830  0.65900  1.0000
  C   C23       1.0  0.78860  0.10310  0.60760  1.0000
  H   H15       1.0  0.83600  0.13650  0.62310  1.0000
  C   C24       1.0  0.75720  0.09870  0.53840  1.0000
  H   H16       1.0  0.78350  0.12840  0.50530  1.0000
  C   C25       1.0  0.68390  0.04900  0.51450  1.0000
  H   H17       1.0  0.66100  0.04660  0.46550  1.0000
  C   C26       1.0  0.64670  0.00520  0.56050  1.0000
  H   H18       1.0  0.59960  0.97230  0.54340  1.0000
  C   C27       1.0  0.67820  0.00870  0.63460  1.0000
  C   C28       1.0  0.63950  0.96660  0.68530  1.0000
  C   C29       1.0  0.66580  0.97060  0.75770  1.0000
  C   C30       1.0  0.74360  0.01890  0.78130  1.0000
  C   C31       1.0  0.77970  0.02010  0.85470  1.0000
  H   H19       1.0  0.83220  0.05110  0.87150  1.0000
  C   C32       1.0  0.73940  0.97750  0.90040  1.0000
  H   H20       1.0  0.76400  0.97930  0.94910  1.0000
  C   C33       1.0  0.66210  0.93030  0.87790  1.0000
  H   H21       1.0  0.63510  0.90070  0.91110  1.0000
  C   C34       1.0  0.62740  0.92770  0.80910  1.0000
  H   H22       1.0  0.57500  0.89600  0.79430  1.0000
  C   C35       1.0  0.44700  0.90600  0.66600  1.0000
  H   H23       1.0  0.38820  0.93460  0.68040  1.0000
  C   C36       1.0  0.98770  0.10500  0.75160  1.0000
  H   H24       1.0  0.03500  0.07750  0.72440  1.0000
  C   C37       1.0  0.02950  0.14970  0.79430  1.0000
  H   H25       1.0  0.11280  0.15930  0.80180  1.0000
  C   C38       1.0  0.83490  0.15240  0.79980  1.0000
  H   H26       1.0  0.75410  0.16380  0.81150  1.0000
  C   C39       1.0  0.42460  0.85000  0.64330  1.0000
  H   H27       1.0  0.34740  0.83160  0.64090  1.0000
  C   C40       1.0  0.61780  0.86310  0.63540  1.0000
  H   H28       1.0  0.70180  0.85660  0.62910  1.0000
  C   C41       1.0  0.65600  0.96070  0.15950  1.0000
  C   C42       1.0  0.73890  0.00440  0.18270  1.0000
  C   C43       1.0  0.79210  0.00480  0.25050  1.0000
  C   C44       1.0  0.88050  0.04760  0.27380  1.0000
  H   H29       1.0  0.90560  0.07850  0.24190  1.0000
  C   C45       1.0  0.92940  0.04530  0.34010  1.0000
  H   H30       1.0  0.98900  0.07400  0.35410  1.0000
  C   C46       1.0  0.89200  0.00000  0.38860  1.0000
  H   H31       1.0  0.92680  0.99900  0.43520  1.0000
  C   C47       1.0  0.80800  0.95820  0.37040  1.0000
  H   H32       1.0  0.78410  0.92870  0.40430  1.0000
  C   C48       1.0  0.67320  0.91400  0.27620  1.0000
  C   C49       1.0  0.75500  0.95800  0.30060  1.0000
  C   C50       1.0  0.70540  0.81760  0.34200  1.0000
  H   H33       1.0  0.77280  0.80370  0.31490  1.0000
  C   C51       1.0  0.56570  0.82540  0.42120  1.0000
  H   H34       1.0  0.51520  0.81690  0.46100  1.0000
  C   C52       1.0  0.55340  0.87300  0.37810  1.0000
  H   H35       1.0  0.49530  0.90450  0.38210  1.0000
  C   C53       1.0  0.86690  0.04540  0.08310  1.0000
  H   H36       1.0  0.91570  0.01150  0.07280  1.0000
  C   C54       1.0  0.73460  0.10750  0.13110  1.0000
  H   H37       1.0  0.67380  0.12280  0.16170  1.0000
  C   C55       1.0  0.87460  0.10010  0.05080  1.0000
  H   H38       1.0  0.92770  0.11050  0.01320  1.0000
  N   N9        1.0  0.66340  0.79010  0.39930  1.0000
  N   N10       1.0  0.64200  0.86740  0.32660  1.0000
  N   N11       1.0  0.77660  0.05030  0.13340  1.0000
  N   N12       1.0  0.79060  0.13900  0.08010  1.0000
  C   C56       1.0  0.62330  0.91230  0.20790  1.0000
  C   C57       1.0  0.54330  0.86570  0.18300  1.0000
  H   H39       1.0  0.52300  0.83310  0.21380  1.0000
  C   C58       1.0  0.49700  0.86760  0.11690  1.0000
  H   H40       1.0  0.44320  0.83670  0.10150  1.0000
  C   C59       1.0  0.52640  0.91470  0.06960  1.0000
  H   H41       1.0  0.49280  0.91470  0.02270  1.0000
  C   C60       1.0  0.60180  0.96000  0.08970  1.0000
  H   H42       1.0  0.61910  0.99170  0.05710  1.0000
  C   C61       1.0  0.71850  0.56130  0.76980  1.0000
  C   C62       1.0  0.74790  0.55830  0.84100  1.0000
  C   C63       1.0  0.71140  0.60310  0.89240  1.0000
  H   H43       1.0  0.66400  0.63650  0.87690  1.0000
  C   C64       1.0  0.74280  0.59870  0.96160  1.0000
  H   H44       1.0  0.71650  0.62840  0.99470  1.0000
  C   C65       1.0  0.81610  0.54900  0.98550  1.0000
  H   H45       1.0  0.83900  0.54660  0.03450  1.0000
  C   C66       1.0  0.85330  0.50520  0.93950  1.0000
  H   H46       1.0  0.90040  0.47230  0.95660  1.0000
  C   C67       1.0  0.82180  0.50870  0.86540  1.0000
  C   C68       1.0  0.86050  0.46660  0.81470  1.0000
  C   C69       1.0  0.83420  0.47060  0.74230  1.0000
  C   C70       1.0  0.75640  0.51890  0.71870  1.0000
  C   C71       1.0  0.72030  0.52010  0.64530  1.0000
  H   H47       1.0  0.66780  0.55110  0.62850  1.0000
  C   C72       1.0  0.76060  0.47750  0.59960  1.0000
  H   H48       1.0  0.73600  0.47930  0.55090  1.0000
  C   C73       1.0  0.83790  0.43030  0.62210  1.0000
  H   H49       1.0  0.86490  0.40070  0.58890  1.0000
  C   C74       1.0  0.87260  0.42770  0.69090  1.0000
  H   H50       1.0  0.92500  0.39600  0.70570  1.0000
  C   C75       1.0  0.05300  0.40600  0.83400  1.0000
  H   H51       1.0  0.11180  0.43460  0.81960  1.0000
  C   C76       1.0  0.51230  0.60500  0.74840  1.0000
  H   H52       1.0  0.46500  0.57750  0.77560  1.0000
  C   C77       1.0  0.47050  0.64970  0.70570  1.0000
  H   H53       1.0  0.38720  0.65930  0.69820  1.0000
  C   C78       1.0  0.66510  0.65240  0.70020  1.0000
  H   H54       1.0  0.74590  0.66380  0.68850  1.0000
  C   C79       1.0  0.07540  0.35000  0.85670  1.0000
  H   H55       1.0  0.15260  0.33160  0.85910  1.0000
  C   C80       1.0  0.88220  0.36310  0.86460  1.0000
  H   H56       1.0  0.79820  0.35660  0.87090  1.0000
  N   N13       1.0  0.56740  0.67920  0.67470  1.0000
  N   N14       1.0  0.63670  0.60740  0.74450  1.0000
  N   N15       1.0  0.92870  0.41550  0.83870  1.0000
  N   N16       1.0  0.96600  0.32300  0.87570  1.0000
  C   C81       1.0  0.23460  0.39250  0.63110  1.0000
  H   H57       1.0  0.17380  0.37720  0.66170  1.0000
  C   C82       1.0  0.37460  0.39990  0.55080  1.0000
  H   H58       1.0  0.42770  0.38950  0.51320  1.0000
  N   N17       1.0  0.16340  0.70990  0.89930  1.0000
  N   N18       1.0  0.14200  0.63260  0.82660  1.0000
  N   N19       1.0  0.27660  0.44970  0.63340  1.0000
  N   N20       1.0  0.29060  0.36100  0.58010  1.0000
  C   C83       1.0  0.12330  0.58770  0.70790  1.0000
  C   C84       1.0  0.04330  0.63430  0.68300  1.0000
  H   H59       1.0  0.02300  0.66690  0.71380  1.0000
  C   C85       1.0  0.99700  0.63240  0.61690  1.0000
  H   H60       1.0  0.94320  0.66330  0.60150  1.0000
  C   C86       1.0  0.02640  0.58530  0.56960  1.0000
  H   H61       1.0  0.99280  0.58530  0.52270  1.0000
  C   C87       1.0  0.10180  0.54000  0.58970  1.0000
  H   H62       1.0  0.11910  0.50830  0.55710  1.0000
  C   C88       1.0  0.15600  0.53930  0.65950  1.0000
  C   C89       1.0  0.23890  0.49560  0.68270  1.0000
  C   C90       1.0  0.29210  0.49520  0.75050  1.0000
  C   C91       1.0  0.38050  0.45240  0.77380  1.0000
  H   H63       1.0  0.40560  0.42150  0.74190  1.0000
  C   C92       1.0  0.42940  0.45470  0.84010  1.0000
  H   H64       1.0  0.48900  0.42600  0.85410  1.0000
  C   C93       1.0  0.39200  0.50000  0.88860  1.0000
  H   H65       1.0  0.42680  0.50100  0.93520  1.0000
  C   C94       1.0  0.30800  0.54180  0.87040  1.0000
  H   H66       1.0  0.28410  0.57130  0.90430  1.0000
  C   C95       1.0  0.17320  0.58600  0.77620  1.0000
  C   C96       1.0  0.25500  0.54200  0.80060  1.0000
  C   C97       1.0  0.20540  0.68240  0.84200  1.0000
  H   H67       1.0  0.27280  0.69630  0.81490  1.0000
  C   C98       1.0  0.06570  0.67460  0.92120  1.0000
  H   H68       1.0  0.01520  0.68310  0.96100  1.0000
  C   C99       1.0  0.05340  0.62700  0.87810  1.0000
  H   H69       1.0  0.99530  0.59550  0.88210  1.0000
  C   C100      1.0  0.36690  0.45460  0.58310  1.0000
  H   H70       1.0  0.41570  0.48850  0.57280  1.0000
  C   C101      1.0  0.35330  0.99480  0.43950  1.0000
  H   H71       1.0  0.40040  0.02770  0.45660  1.0000
  C   C102      1.0  0.32180  0.99130  0.36540  1.0000
  C   C103      1.0  0.36050  0.03340  0.31470  1.0000
  C   C104      1.0  0.33420  0.02940  0.24230  1.0000
  C   C105      1.0  0.25640  0.98110  0.21870  1.0000
  C   C106      1.0  0.22030  0.97990  0.14530  1.0000
  H   H72       1.0  0.16780  0.94890  0.12850  1.0000
  C   C107      1.0  0.26060  0.02250  0.09960  1.0000
  H   H73       1.0  0.23600  0.02070  0.05090  1.0000
  C   C108      1.0  0.33790  0.06970  0.12210  1.0000
  H   H74       1.0  0.36490  0.09930  0.08890  1.0000
  C   C109      1.0  0.37260  0.07230  0.19090  1.0000
  H   H75       1.0  0.42500  0.10400  0.20570  1.0000
  C   C110      1.0  0.55300  0.09400  0.33400  1.0000
  H   H76       1.0  0.61180  0.06540  0.31960  1.0000
  C   C111      1.0  0.01230  0.89500  0.24840  1.0000
  H   H77       1.0  0.96500  0.92250  0.27560  1.0000
  C   C112      1.0  0.97050  0.85030  0.20570  1.0000
  H   H78       1.0  0.88720  0.84070  0.19820  1.0000
  C   C113      1.0  0.16510  0.84760  0.20020  1.0000
  H   H79       1.0  0.24590  0.83620  0.18850  1.0000
  C   C114      1.0  0.57540  0.15000  0.35670  1.0000
  H   H80       1.0  0.65260  0.16840  0.35910  1.0000
  C   C115      1.0  0.38220  0.13690  0.36460  1.0000
  H   H81       1.0  0.29820  0.14340  0.37090  1.0000
  N   N21       1.0  0.06740  0.82080  0.17470  1.0000
  N   N22       1.0  0.13670  0.89260  0.24450  1.0000
  N   N23       1.0  0.42870  0.08450  0.33870  1.0000
  N   N24       1.0  0.46600  0.17700  0.37570  1.0000
  C   C116      1.0  0.21850  0.93870  0.26980  1.0000
  C   C117      1.0  0.24790  0.94170  0.34100  1.0000
  C   C118      1.0  0.21140  0.89690  0.39240  1.0000
  H   H82       1.0  0.16400  0.86350  0.37690  1.0000
  C   C119      1.0  0.24280  0.90130  0.46160  1.0000
  H   H83       1.0  0.21650  0.87160  0.49470  1.0000
  C   C120      1.0  0.31610  0.95100  0.48550  1.0000
  H   H84       1.0  0.33900  0.95340  0.53450  1.0000
  C   C121      1.0  0.26540  0.89250  0.86890  1.0000
  H   H85       1.0  0.32620  0.87720  0.83830  1.0000
  C   C122      1.0  0.12540  0.89990  0.94920  1.0000
  H   H86       1.0  0.07230  0.88950  0.98680  1.0000
  N   N25       1.0  0.33660  0.20990  0.60070  1.0000
  N   N26       1.0  0.35800  0.13260  0.67340  1.0000
  N   N27       1.0  0.22340  0.94970  0.86660  1.0000
  N   N28       1.0  0.20940  0.86100  0.91990  1.0000
  C   C123      1.0  0.37670  0.08770  0.79210  1.0000
  C   C124      1.0  0.45670  0.13430  0.81700  1.0000
  H   H87       1.0  0.47700  0.16690  0.78620  1.0000
  C   C125      1.0  0.50300  0.13240  0.88310  1.0000
  H   H88       1.0  0.55680  0.16330  0.89850  1.0000
  C   C126      1.0  0.47360  0.08530  0.93040  1.0000
  H   H89       1.0  0.50720  0.08530  0.97730  1.0000
  C   C127      1.0  0.39820  0.04000  0.91030  1.0000
  H   H90       1.0  0.38090  0.00830  0.94290  1.0000
  C   C128      1.0  0.34400  0.03930  0.84050  1.0000
  C   C129      1.0  0.26110  0.99560  0.81730  1.0000
  C   C130      1.0  0.20790  0.99520  0.74950  1.0000
  C   C131      1.0  0.11950  0.95240  0.72620  1.0000
  H   H91       1.0  0.09440  0.92150  0.75810  1.0000
  C   C132      1.0  0.07060  0.95470  0.65990  1.0000
  H   H92       1.0  0.01100  0.92600  0.64590  1.0000
  C   C133      1.0  0.10800  0.00000  0.61140  1.0000
  H   H93       1.0  0.07320  0.00100  0.56480  1.0000
  C   C134      1.0  0.19200  0.04180  0.62960  1.0000
  H   H94       1.0  0.21590  0.07130  0.59570  1.0000
  C   C135      1.0  0.32680  0.08600  0.72380  1.0000
  C   C136      1.0  0.24500  0.04200  0.69940  1.0000
  C   C137      1.0  0.29460  0.18240  0.65800  1.0000
  H   H95       1.0  0.22720  0.19630  0.68510  1.0000
  C   C138      1.0  0.43430  0.17460  0.57880  1.0000
  H   H96       1.0  0.48480  0.18310  0.53900  1.0000
  C   C139      1.0  0.44660  0.12700  0.62190  1.0000
  H   H97       1.0  0.50470  0.09550  0.61790  1.0000
  C   C140      1.0  0.13310  0.95460  0.91690  1.0000
  H   H98       1.0  0.08430  0.98850  0.92720  1.0000
  C   C141      1.0  0.92460  0.65000  0.14330  1.0000
  H   H99       1.0  0.84740  0.66840  0.14090  1.0000
  C   C142      1.0  0.11780  0.63690  0.13540  1.0000
  H   H100      1.0  0.20180  0.64340  0.12910  1.0000
  N   N29       1.0  0.43260  0.32080  0.32530  1.0000
  N   N30       1.0  0.36330  0.39260  0.25550  1.0000
  N   N31       1.0  0.07130  0.58450  0.16130  1.0000
  N   N32       1.0  0.03400  0.67700  0.12430  1.0000
  C   C143      1.0  0.28150  0.43870  0.23020  1.0000
  C   C144      1.0  0.25210  0.44170  0.15900  1.0000
  C   C145      1.0  0.28860  0.39690  0.10760  1.0000
  H   H101      1.0  0.33600  0.36350  0.12310  1.0000
  C   C146      1.0  0.25720  0.40130  0.03840  1.0000
  H   H102      1.0  0.28350  0.37160  0.00530  1.0000
  C   C147      1.0  0.18390  0.45100  0.01450  1.0000
  H   H103      1.0  0.16100  0.45340  0.96550  1.0000
  C   C148      1.0  0.14670  0.49480  0.06050  1.0000
  H   H104      1.0  0.09960  0.52770  0.04340  1.0000
  C   C149      1.0  0.17820  0.49130  0.13460  1.0000
  C   C150      1.0  0.13950  0.53340  0.18530  1.0000
  C   C151      1.0  0.16580  0.52940  0.25770  1.0000
  C   C152      1.0  0.24360  0.48110  0.28130  1.0000
  C   C153      1.0  0.27970  0.47990  0.35470  1.0000
  H   H105      1.0  0.33220  0.44890  0.37150  1.0000
  C   C154      1.0  0.23940  0.52250  0.40040  1.0000
  H   H106      1.0  0.26400  0.52070  0.44910  1.0000
  C   C155      1.0  0.16210  0.56970  0.37790  1.0000
  H   H107      1.0  0.13510  0.59930  0.41110  1.0000
  C   C156      1.0  0.12740  0.57230  0.30910  1.0000
  H   H108      1.0  0.07500  0.60400  0.29430  1.0000
  C   C157      1.0  0.94700  0.59400  0.16600  1.0000
  H   H109      1.0  0.88820  0.56540  0.18040  1.0000
  C   C158      1.0  0.48770  0.39500  0.25160  1.0000
  H   H110      1.0  0.53500  0.42250  0.22440  1.0000
  C   C159      1.0  0.52950  0.35030  0.29430  1.0000
  H   H111      1.0  0.61280  0.34070  0.30180  1.0000
  C   C160      1.0  0.33490  0.34760  0.29980  1.0000
  H   H112      1.0  0.25410  0.33620  0.31150  1.0000
  S   S1        1.0  0.11630  0.20053  0.26321  1.0000
  O   O1        1.0  0.57680  0.23590  0.06150  1.0000
  O   O2        1.0  0.58050  0.21970  0.17960  1.0000
  O   O3        1.0  0.01970  0.21173  0.98740  1.0000
  O   O4        1.0  0.19030  0.22260  0.92640  1.0000
  O   O5        1.0  0.13220  0.13722  0.27940  1.0000
  O   O6        1.0  0.99090  0.21660  0.24730  1.0000
  O   O7        1.0  0.17320  0.23980  0.31590  1.0000
  C   C161      1.0  0.38810  0.22530  0.12090  1.0000
  C   C162      1.0  0.32330  0.22050  0.18410  1.0000
  H   H113      1.0  0.36460  0.22240  0.22870  1.0000
  C   C163      1.0  0.19780  0.21280  0.18210  1.0000
  C   C164      1.0  0.13780  0.21070  0.11720  1.0000
  H   H114      1.0  0.05220  0.20500  0.11600  1.0000
  C   C165      1.0  0.20130  0.21680  0.05380  1.0000
  C   C166      1.0  0.32620  0.22400  0.05600  1.0000
  H   H115      1.0  0.37020  0.22820  0.01270  1.0000
  C   C167      1.0  0.52560  0.22740  0.12380  1.0000
  C   C168      1.0  0.13510  0.21660  0.98340  1.0000
  C   C169      1.0  0.11190  0.72530  0.37910  1.0000
  C   C170      1.0  0.17670  0.72050  0.31590  1.0000
  H   H116      1.0  0.13540  0.72240  0.27130  1.0000
  C   C171      1.0  0.30220  0.71280  0.31790  1.0000
  C   C172      1.0  0.36220  0.71070  0.38280  1.0000
  H   H117      1.0  0.44780  0.70500  0.38400  1.0000
  C   C173      1.0  0.29870  0.71680  0.44620  1.0000
  C   C174      1.0  0.17380  0.72400  0.44400  1.0000
  H   H118      1.0  0.12980  0.72820  0.48730  1.0000
  C   C175      1.0  0.97440  0.72740  0.37620  1.0000
  C   C176      1.0  0.36490  0.71660  0.51660  1.0000
  S   S2        1.0  0.38370  0.70053  0.23679  1.0000
  O   O8        1.0  0.92320  0.73590  0.43850  1.0000
  O   O9        1.0  0.91950  0.71970  0.32040  1.0000
  O   O10       1.0  0.48030  0.71173  0.51260  1.0000
  O   O11       1.0  0.30970  0.72260  0.57360  1.0000
  O   O12       1.0  0.36780  0.63722  0.22060  1.0000
  O   O13       1.0  0.50910  0.71660  0.25270  1.0000
  O   O14       1.0  0.32680  0.73980  0.18410  1.0000
  C   C177      1.0  0.61190  0.77470  0.87910  1.0000
  C   C178      1.0  0.67670  0.77950  0.81590  1.0000
  H   H119      1.0  0.63540  0.77760  0.77130  1.0000
  C   C179      1.0  0.80220  0.78720  0.81790  1.0000
  C   C180      1.0  0.86220  0.78930  0.88280  1.0000
  H   H120      1.0  0.94780  0.79500  0.88400  1.0000
  C   C181      1.0  0.79870  0.78320  0.94620  1.0000
  C   C182      1.0  0.67380  0.77600  0.94400  1.0000
  H   H121      1.0  0.62980  0.77180  0.98730  1.0000
  C   C183      1.0  0.47440  0.77260  0.87620  1.0000
  C   C184      1.0  0.86490  0.78340  0.01660  1.0000
  S   S3        1.0  0.88370  0.79947  0.73679  1.0000
  O   O15       1.0  0.42320  0.76410  0.93850  1.0000
  O   O16       1.0  0.41950  0.78030  0.82040  1.0000
  O   O17       1.0  0.98030  0.78827  0.01260  1.0000
  O   O18       1.0  0.80970  0.77740  0.07360  1.0000
  O   O19       1.0  0.86780  0.86278  0.72060  1.0000
  O   O20       1.0  0.00910  0.78340  0.75270  1.0000
  O   O21       1.0  0.82680  0.76020  0.68410  1.0000
  C   C185      1.0  0.82620  0.27600  0.55600  1.0000
  H   H122      1.0  0.87020  0.27180  0.51270  1.0000
  C   C186      1.0  0.02560  0.27260  0.62380  1.0000
  C   C187      1.0  0.63510  0.28340  0.48340  1.0000
  S   S4        1.0  0.61630  0.29947  0.76321  1.0000
  O   O22       1.0  0.07680  0.26410  0.56150  1.0000
  O   O23       1.0  0.08050  0.28030  0.67960  1.0000
  O   O24       1.0  0.51970  0.28827  0.48740  1.0000
  O   O25       1.0  0.69030  0.27740  0.42640  1.0000
  O   O26       1.0  0.63220  0.36278  0.77940  1.0000
  O   O27       1.0  0.49090  0.28340  0.74730  1.0000
  O   O28       1.0  0.67320  0.26020  0.81590  1.0000
  C   C188      1.0  0.88810  0.27470  0.62090  1.0000
  C   C189      1.0  0.82330  0.27950  0.68410  1.0000
  H   H123      1.0  0.86460  0.27760  0.72870  1.0000
  C   C190      1.0  0.69780  0.28720  0.68210  1.0000
  C   C191      1.0  0.63780  0.28930  0.61720  1.0000
  H   H124      1.0  0.55220  0.29500  0.61600  1.0000
  C   C192      1.0  0.70130  0.28320  0.55380  1.0000
  O   O29       1.0  0.77280  0.23206  0.94940  1.0000
  H   H125      1.0  0.70220  0.23300  0.91990  1.0000
  O   O30       1.0  0.72720  0.73206  0.55060  1.0000
  H   H126      1.0  0.79780  0.73300  0.58010  1.0000
  O   O31       1.0  0.22720  0.76794  0.05060  1.0000
  H   H127      1.0  0.29780  0.76700  0.08010  1.0000
  O   O32       1.0  0.27280  0.26794  0.44940  1.0000
  H   H128      1.0  0.20220  0.26700  0.41990  1.0000
  Zn  Zn1       1.0  0.92822  0.23866  0.90372  1.0000
  Zn  Zn2       1.0  0.75102  0.22367  0.04983  1.0000
  Zn  Zn3       1.0  0.57178  0.73866  0.59628  1.0000
  Zn  Zn4       1.0  0.74898  0.72367  0.45017  1.0000
  Zn  Zn5       1.0  0.07178  0.76134  0.09628  1.0000
  Zn  Zn6       1.0  0.24898  0.77633  0.95017  1.0000
  Zn  Zn7       1.0  0.42822  0.26134  0.40372  1.0000
  Zn  Zn8       1.0  0.25102  0.27633  0.54983  1.0000
