data_image0
_chemical_formula_structural       CHCHCHC3HC4H2NHNCHN2CHCHCHCHCHC4HCHC4HCHCHC3H3N2CHC4HCHCHN2CHCHCH2NCHCHCHNC3HCHC2HCHN2CHCHCHC3HCHC2HC2HC2HC2HC3O4HO3SCO4HO3SCHC2HC2HC2Co2
_chemical_formula_sum              "C76 H50 N12 O14 S2 Co2"
_cell_length_a       9.1899
_cell_length_b       11.115
_cell_length_c       19.4654
_cell_angle_alpha    100.329
_cell_angle_beta     94.053
_cell_angle_gamma    113.601

_space_group_name_H-M_alt    "P 1"
_space_group_IT_number       1

loop_
  _space_group_symop_operation_xyz
  'x, y, z'

loop_
  _atom_site_type_symbol
  _atom_site_label
  _atom_site_symmetry_multiplicity
  _atom_site_fract_x
  _atom_site_fract_y
  _atom_site_fract_z
  _atom_site_occupancy
  C   C1        1.0  0.09830  0.32516  0.43492  1.0000
  H   H1        1.0  0.17980  0.37665  0.47465  1.0000
  C   C2        1.0  0.90180  0.15820  0.35922  1.0000
  H   H2        1.0  0.82180  0.07054  0.33756  1.0000
  C   C3        1.0  0.05513  0.37043  0.38011  1.0000
  H   H3        1.0  0.10271  0.46089  0.37496  1.0000
  C   C4        1.0  0.81940  0.19080  0.61439  1.0000
  C   C5        1.0  0.18300  0.90590  0.34669  1.0000
  C   C6        1.0  0.88020  0.19289  0.55257  1.0000
  H   H4        1.0  0.88080  0.25803  0.52684  1.0000
  C   C7        1.0  0.94300  0.09844  0.52600  1.0000
  C   C8        1.0  0.00150  0.09388  0.46162  1.0000
  C   C9        1.0  0.05840  0.99879  0.43407  1.0000
  C   C10       1.0  0.12330  0.99717  0.36965  1.0000
  H   H5        1.0  0.12480  0.06056  0.34250  1.0000
  H   H6        1.0  0.77840  0.25460  0.63149  1.0000
  N   N1        1.0  0.00009  0.81074  0.57884  1.0000
  H   H7        1.0  0.22700  0.90700  0.30395  1.0000
  N   N2        1.0  0.06836  0.73486  0.66698  1.0000
  C   C11       1.0  0.81700  0.09410  0.65331  1.0000
  H   H8        1.0  0.77300  0.09300  0.69605  1.0000
  N   N3        1.0  0.93164  0.26514  0.33302  1.0000
  N   N4        1.0  0.99991  0.18926  0.42116  1.0000
  C   C12       1.0  0.90170  0.67484  0.56508  1.0000
  H   H9        1.0  0.82020  0.62335  0.52535  1.0000
  C   C13       1.0  0.09820  0.84180  0.64078  1.0000
  H   H10       1.0  0.17820  0.92946  0.66244  1.0000
  C   C14       1.0  0.94487  0.62957  0.61989  1.0000
  H   H11       1.0  0.89729  0.53911  0.62504  1.0000
  C   C15       1.0  0.18060  0.80920  0.38561  1.0000
  H   H12       1.0  0.22160  0.74540  0.36851  1.0000
  C   C16       1.0  0.11980  0.80711  0.44743  1.0000
  H   H13       1.0  0.11920  0.74197  0.47316  1.0000
  C   C17       1.0  0.05700  0.90156  0.47400  1.0000
  C   C18       1.0  0.99850  0.90612  0.53838  1.0000
  C   C19       1.0  0.94160  0.00121  0.56593  1.0000
  C   C20       1.0  0.87670  0.00283  0.63035  1.0000
  H   H14       1.0  0.87520  0.93944  0.65750  1.0000
  C   C21       1.0  0.71650  0.72975  0.95616  1.0000
  H   H15       1.0  0.67990  0.79128  0.94156  1.0000
  C   C22       1.0  0.60591  0.61422  0.97734  1.0000
  C   C23       1.0  0.44379  0.58662  0.97738  1.0000
  C   C24       1.0  0.33602  0.47664  0.00002  1.0000
  C   C25       1.0  0.66587  0.15776  0.06719  1.0000
  H   H16       1.0  0.67447  0.07418  0.05970  1.0000
  C   C26       1.0  0.60410  0.20258  0.01709  1.0000
  H   H17       1.0  0.56190  0.15743  0.96902  1.0000
  C   C27       1.0  0.68187  0.35205  0.11835  1.0000
  H   H18       1.0  0.70261  0.43147  0.15292  1.0000
  C   C28       1.0  0.12720  0.24800  0.04322  1.0000
  C   C29       1.0  0.17130  0.45062  0.00198  1.0000
  C   C30       1.0  0.07120  0.34050  0.02315  1.0000
  H   H19       1.0  0.05470  0.16993  0.05632  1.0000
  H   H20       1.0  0.13120  0.51091  0.98835  1.0000
  H   H21       1.0  0.96210  0.32522  0.02454  1.0000
  N   N5        1.0  0.28582  0.74820  0.86944  1.0000
  N   N6        1.0  0.38447  0.67277  0.94960  1.0000
  C   C31       1.0  0.28350  0.27025  0.04384  1.0000
  H   H22       1.0  0.32010  0.20872  0.05844  1.0000
  C   C32       1.0  0.39409  0.38578  0.02266  1.0000
  C   C33       1.0  0.55621  0.41338  0.02262  1.0000
  C   C34       1.0  0.66398  0.52336  0.99998  1.0000
  C   C35       1.0  0.82870  0.54938  0.99802  1.0000
  H   H23       1.0  0.86880  0.48909  0.01165  1.0000
  C   C36       1.0  0.92880  0.65950  0.97685  1.0000
  H   H24       1.0  0.03790  0.67478  0.97546  1.0000
  C   C37       1.0  0.87280  0.75200  0.95678  1.0000
  H   H25       1.0  0.94530  0.83007  0.94368  1.0000
  N   N7        1.0  0.71418  0.25180  0.13056  1.0000
  N   N8        1.0  0.61553  0.32723  0.05040  1.0000
  C   C38       1.0  0.33413  0.84224  0.93281  1.0000
  H   H26       1.0  0.32553  0.92582  0.94030  1.0000
  C   C39       1.0  0.39590  0.79742  0.98291  1.0000
  H   H27       1.0  0.43810  0.84257  0.03098  1.0000
  C   C40       1.0  0.31813  0.64795  0.88165  1.0000
  H   H28       1.0  0.29739  0.56853  0.84708  1.0000
  H   H29       1.0  0.40740  0.16990  0.62782  1.0000
  N   N9        1.0  0.35218  0.68897  0.71961  1.0000
  C   C41       1.0  0.67073  0.37514  0.34652  1.0000
  H   H30       1.0  0.77024  0.41167  0.37755  1.0000
  C   C42       1.0  0.41770  0.31950  0.30613  1.0000
  H   H31       1.0  0.30940  0.30890  0.30237  1.0000
  C   C43       1.0  0.48880  0.27573  0.25485  1.0000
  H   H32       1.0  0.43680  0.22769  0.20807  1.0000
  N   N10       1.0  0.46470  0.61731  0.63503  1.0000
  C   C44       1.0  0.51795  0.44270  0.43372  1.0000
  C   C45       1.0  0.49306  0.36738  0.48581  1.0000
  C   C46       1.0  0.47990  0.23231  0.47316  1.0000
  H   H33       1.0  0.49340  0.19143  0.42831  1.0000
  C   C47       1.0  0.44820  0.16225  0.52470  1.0000
  H   H34       1.0  0.43830  0.07221  0.51522  1.0000
  C   C48       1.0  0.52581  0.57306  0.44545  1.0000
  C   C49       1.0  0.55680  0.65027  0.39243  1.0000
  H   H35       1.0  0.56780  0.61151  0.34658  1.0000
  C   C50       1.0  0.57040  0.77900  0.40746  1.0000
  H   H36       1.0  0.59260  0.83010  0.37218  1.0000
  N   N11       1.0  0.64782  0.31103  0.28039  1.0000
  N   N12       1.0  0.53530  0.38269  0.36497  1.0000
  C   C51       1.0  0.32927  0.62486  0.65348  1.0000
  H   H37       1.0  0.22976  0.58833  0.62245  1.0000
  C   C52       1.0  0.58230  0.68050  0.69387  1.0000
  H   H38       1.0  0.69060  0.69110  0.69763  1.0000
  C   C53       1.0  0.51120  0.72427  0.74515  1.0000
  H   H39       1.0  0.56320  0.77231  0.79193  1.0000
  C   C54       1.0  0.48205  0.55730  0.56628  1.0000
  C   C55       1.0  0.50694  0.63262  0.51419  1.0000
  C   C56       1.0  0.52010  0.76769  0.52684  1.0000
  H   H40       1.0  0.50660  0.80857  0.57169  1.0000
  C   C57       1.0  0.55180  0.83775  0.47530  1.0000
  H   H41       1.0  0.56170  0.92779  0.48478  1.0000
  C   C58       1.0  0.47419  0.42694  0.55455  1.0000
  C   C59       1.0  0.44320  0.34973  0.60757  1.0000
  H   H42       1.0  0.43220  0.38849  0.65342  1.0000
  C   C60       1.0  0.42960  0.22100  0.59254  1.0000
  C   C61       1.0  0.35272  0.69766  0.20534  1.0000
  H   H43       1.0  0.42274  0.66027  0.22029  1.0000
  C   C62       1.0  0.18694  0.62746  0.20028  1.0000
  C   C63       1.0  0.08601  0.68178  0.17647  1.0000
  H   H44       1.0  0.97282  0.63314  0.17219  1.0000
  C   C64       1.0  0.14888  0.80678  0.15878  1.0000
  C   C65       1.0  0.31433  0.87859  0.16504  1.0000
  H   H45       1.0  0.35823  0.96439  0.15360  1.0000
  C   C66       1.0  0.41475  0.82305  0.18827  1.0000
  C   C67       1.0  0.04074  0.87094  0.14011  1.0000
  C   C68       1.0  0.11900  0.49456  0.22245  1.0000
  O   O1        1.0  0.69623  0.86682  0.25059  1.0000
  O   O2        1.0  0.64926  0.05542  0.22483  1.0000
  O   O3        1.0  0.67340  0.89409  0.12960  1.0000
  O   O4        1.0  0.88785  0.79090  0.13663  1.0000
  H   H46       1.0  0.83190  0.83380  0.13190  1.0000
  O   O5        1.0  0.09015  0.98488  0.13083  1.0000
  O   O6        1.0  0.20653  0.43462  0.22631  1.0000
  O   O7        1.0  0.97532  0.45579  0.23554  1.0000
  S   S1        1.0  0.62629  0.91624  0.19941  1.0000
  C   C69       1.0  0.88100  0.50544  0.77755  1.0000
  O   O8        1.0  0.30377  0.13318  0.74941  1.0000
  O   O9        1.0  0.35074  0.94458  0.77517  1.0000
  O   O10       1.0  0.32660  0.10591  0.87040  1.0000
  O   O11       1.0  0.11215  0.20910  0.86337  1.0000
  H   H47       1.0  0.16810  0.16620  0.86810  1.0000
  O   O12       1.0  0.90985  0.01512  0.86917  1.0000
  O   O13       1.0  0.79347  0.56538  0.77369  1.0000
  O   O14       1.0  0.02468  0.54421  0.76446  1.0000
  S   S2        1.0  0.37371  0.08376  0.80059  1.0000
  C   C70       1.0  0.64728  0.30234  0.79466  1.0000
  H   H48       1.0  0.57726  0.33973  0.77971  1.0000
  C   C71       1.0  0.81306  0.37254  0.79972  1.0000
  C   C72       1.0  0.91399  0.31822  0.82353  1.0000
  H   H49       1.0  0.02718  0.36686  0.82781  1.0000
  C   C73       1.0  0.85112  0.19322  0.84122  1.0000
  C   C74       1.0  0.68567  0.12141  0.83496  1.0000
  H   H50       1.0  0.64177  0.03561  0.84640  1.0000
  C   C75       1.0  0.58525  0.17695  0.81173  1.0000
  C   C76       1.0  0.95926  0.12906  0.85989  1.0000
  Co  Co1       1.0  0.81924  0.25664  0.23132  1.0000
  Co  Co2       1.0  0.18076  0.74336  0.76868  1.0000
