data_image0
_chemical_formula_structural       ONCOCNOHC2HC3OCHNCHC2HNCHNCH2CNO2HONC3OC2HC2HN2CHC2HCHNCH2ONCOCNOHC2HC3OCHNCHC2HNCHNCH2CNO2HONC3OC2HC2HN2CHC2HCHNCH2CNOHC2HC3OCHNCHC2HNCHNCH2ONCONO2HONC3OC2HC2HN2CHC2HCHNCH2CONCOCNOHC2HC3OCHNCHC2HNCHNCH2CNO2HONC3OC2HC2HN2CHC2HCHNCH2Cd4
_chemical_formula_sum              "O32 N40 C104 H64 Cd4"
_cell_length_a       10.003
_cell_length_b       17.0024
_cell_length_c       16.0933
_cell_angle_alpha    90
_cell_angle_beta     92.087
_cell_angle_gamma    90

_space_group_name_H-M_alt    "P 1"
_space_group_IT_number       1

loop_
  _space_group_symop_operation_xyz
  'x, y, z'

loop_
  _atom_site_type_symbol
  _atom_site_label
  _atom_site_symmetry_multiplicity
  _atom_site_fract_x
  _atom_site_fract_y
  _atom_site_fract_z
  _atom_site_occupancy
  O   O1        1.0  0.87684  0.96827  0.65834  1.0000
  N   N1        1.0  0.77748  0.92186  0.92341  1.0000
  C   C1        1.0  0.90467  0.91069  0.90269  1.0000
  O   O2        1.0  0.66816  0.00469  0.67941  1.0000
  C   C2        1.0  0.01084  0.88236  0.96092  1.0000
  N   N2        1.0  0.92116  0.92881  0.82326  1.0000
  O   O3        1.0  0.50253  0.99691  0.79298  1.0000
  H   H1        1.0  0.55460  0.99900  0.75490  1.0000
  C   C3        1.0  0.70769  0.94984  0.85489  1.0000
  C   C4        1.0  0.14083  0.90906  0.95349  1.0000
  H   H2        1.0  0.15910  0.94660  0.91350  1.0000
  C   C5        1.0  0.78069  0.97760  0.70402  1.0000
  C   C6        1.0  0.79794  0.95402  0.79311  1.0000
  C   C7        1.0  0.56328  0.96620  0.85876  1.0000
  O   O4        1.0  0.50481  0.95191  0.92101  1.0000
  C   C8        1.0  0.98298  0.82817  0.02256  1.0000
  H   H3        1.0  0.89560  0.81120  0.02900  1.0000
  N   N3        1.0  0.32245  0.79052  0.11206  1.0000
  C   C9        1.0  0.24387  0.88059  0.00480  1.0000
  H   H4        1.0  0.33090  0.89860  0.99970  1.0000
  C   C10       1.0  0.21441  0.82467  0.06384  1.0000
  C   C11       1.0  0.08541  0.79941  0.07448  1.0000
  H   H5        1.0  0.06710  0.76340  0.11610  1.0000
  N   N4        1.0  0.44130  0.82878  0.12108  1.0000
  C   C12       1.0  0.33395  0.71869  0.14472  1.0000
  H   H6        1.0  0.26600  0.68140  0.14510  1.0000
  N   N5        1.0  0.45682  0.70829  0.17669  1.0000
  C   C13       1.0  0.51720  0.77694  0.16042  1.0000
  H   H7        1.0  0.60610  0.78690  0.17590  1.0000
  H   H8        1.0  0.74500  0.91680  0.96960  1.0000
  C   C14       1.0  0.13497  0.87904  0.47330  1.0000
  N   N6        1.0  0.17663  0.95832  0.60206  1.0000
  O   O5        1.0  0.17504  0.02833  0.75769  1.0000
  O   O6        1.0  0.44089  0.16057  0.59600  1.0000
  H   H9        1.0  0.39940  0.14740  0.63680  1.0000
  O   O7        1.0  0.30460  0.12571  0.71576  1.0000
  N   N7        1.0  0.29187  0.99096  0.49318  1.0000
  C   C15       1.0  0.20207  0.94069  0.52340  1.0000
  C   C16       1.0  0.32543  0.04440  0.55372  1.0000
  C   C17       1.0  0.25317  0.02325  0.62153  1.0000
  O   O8        1.0  0.46375  0.11640  0.46753  1.0000
  C   C18       1.0  0.24374  0.06125  0.70460  1.0000
  C   C19       1.0  0.99999  0.86519  0.48424  1.0000
  H   H10       1.0  0.95590  0.89160  0.52580  1.0000
  C   C20       1.0  0.41716  0.11050  0.53556  1.0000
  C   C21       1.0  0.20086  0.83797  0.41261  1.0000
  H   H11       1.0  0.29200  0.84570  0.40640  1.0000
  N   N8        1.0  0.76341  0.65858  0.25011  1.0000
  N   N9        1.0  0.98027  0.69315  0.24670  1.0000
  C   C22       1.0  0.93057  0.81220  0.43348  1.0000
  H   H12       1.0  0.84050  0.80230  0.44140  1.0000
  C   C23       1.0  0.99619  0.77429  0.37107  1.0000
  C   C24       1.0  0.88120  0.65432  0.21033  1.0000
  H   H13       1.0  0.89050  0.62610  0.16140  1.0000
  C   C25       1.0  0.13186  0.78540  0.36109  1.0000
  H   H14       1.0  0.17610  0.75790  0.32030  1.0000
  N   N10       1.0  0.92246  0.72434  0.31454  1.0000
  C   C26       1.0  0.79432  0.70311  0.31508  1.0000
  H   H15       1.0  0.73500  0.71760  0.35550  1.0000
  H   H16       1.0  0.31600  0.99270  0.44530  1.0000
  O   O9        1.0  0.62316  0.46827  0.84166  1.0000
  N   N11       1.0  0.72252  0.42186  0.57659  1.0000
  C   C27       1.0  0.59533  0.41069  0.59731  1.0000
  O   O10       1.0  0.83184  0.50469  0.82059  1.0000
  C   C28       1.0  0.48916  0.38236  0.53908  1.0000
  N   N12       1.0  0.57884  0.42881  0.67674  1.0000
  O   O11       1.0  0.99747  0.49691  0.70702  1.0000
  H   H17       1.0  0.94540  0.49900  0.74510  1.0000
  C   C29       1.0  0.79231  0.44984  0.64511  1.0000
  C   C30       1.0  0.35917  0.40906  0.54651  1.0000
  H   H18       1.0  0.34090  0.44660  0.58650  1.0000
  C   C31       1.0  0.71931  0.47760  0.79598  1.0000
  C   C32       1.0  0.70206  0.45402  0.70689  1.0000
  C   C33       1.0  0.93672  0.46620  0.64124  1.0000
  O   O12       1.0  0.99519  0.45191  0.57899  1.0000
  C   C34       1.0  0.51702  0.32817  0.47744  1.0000
  H   H19       1.0  0.60440  0.31120  0.47100  1.0000
  N   N13       1.0  0.17755  0.29052  0.38794  1.0000
  C   C35       1.0  0.25613  0.38059  0.49520  1.0000
  H   H20       1.0  0.16910  0.39860  0.50030  1.0000
  C   C36       1.0  0.28559  0.32467  0.43616  1.0000
  C   C37       1.0  0.41459  0.29941  0.42552  1.0000
  H   H21       1.0  0.43290  0.26340  0.38390  1.0000
  N   N14       1.0  0.05870  0.32878  0.37892  1.0000
  C   C38       1.0  0.16605  0.21869  0.35528  1.0000
  H   H22       1.0  0.23400  0.18140  0.35490  1.0000
  N   N15       1.0  0.04318  0.20829  0.32331  1.0000
  C   C39       1.0  0.98280  0.27694  0.33958  1.0000
  H   H23       1.0  0.89390  0.28690  0.32410  1.0000
  H   H24       1.0  0.75500  0.41680  0.53040  1.0000
  C   C40       1.0  0.36503  0.37904  0.02670  1.0000
  N   N16       1.0  0.32337  0.45832  0.89794  1.0000
  O   O13       1.0  0.32496  0.52833  0.74231  1.0000
  O   O14       1.0  0.05911  0.66057  0.90400  1.0000
  H   H25       1.0  0.10060  0.64740  0.86320  1.0000
  O   O15       1.0  0.19540  0.62571  0.78424  1.0000
  N   N17       1.0  0.20813  0.49096  0.00682  1.0000
  C   C41       1.0  0.29793  0.44069  0.97660  1.0000
  C   C42       1.0  0.17457  0.54440  0.94628  1.0000
  C   C43       1.0  0.24683  0.52325  0.87847  1.0000
  O   O16       1.0  0.03625  0.61640  0.03247  1.0000
  C   C44       1.0  0.25626  0.56125  0.79540  1.0000
  C   C45       1.0  0.50001  0.36519  0.01576  1.0000
  H   H26       1.0  0.54410  0.39160  0.97420  1.0000
  C   C46       1.0  0.08284  0.61050  0.96444  1.0000
  C   C47       1.0  0.29914  0.33797  0.08739  1.0000
  H   H27       1.0  0.20800  0.34570  0.09360  1.0000
  N   N18       1.0  0.73659  0.15858  0.24989  1.0000
  N   N19       1.0  0.51973  0.19315  0.25330  1.0000
  C   C48       1.0  0.56943  0.31220  0.06652  1.0000
  H   H28       1.0  0.65950  0.30230  0.05860  1.0000
  C   C49       1.0  0.50381  0.27429  0.12893  1.0000
  C   C50       1.0  0.61880  0.15432  0.28967  1.0000
  H   H29       1.0  0.60950  0.12610  0.33860  1.0000
  C   C51       1.0  0.36814  0.28540  0.13891  1.0000
  H   H30       1.0  0.32390  0.25790  0.17970  1.0000
  N   N20       1.0  0.57754  0.22434  0.18546  1.0000
  C   C52       1.0  0.70568  0.20311  0.18492  1.0000
  H   H31       1.0  0.76500  0.21760  0.14450  1.0000
  H   H32       1.0  0.18400  0.49270  0.05470  1.0000
  C   C53       1.0  0.98916  0.11764  0.03908  1.0000
  N   N21       1.0  0.07884  0.07119  0.17674  1.0000
  O   O17       1.0  0.49747  0.00309  0.20702  1.0000
  H   H33       1.0  0.44540  0.00100  0.24510  1.0000
  C   C54       1.0  0.29231  0.05016  0.14511  1.0000
  C   C55       1.0  0.85917  0.09094  0.04651  1.0000
  H   H34       1.0  0.84090  0.05340  0.08650  1.0000
  C   C56       1.0  0.21931  0.02240  0.29598  1.0000
  C   C57       1.0  0.20206  0.04598  0.20689  1.0000
  C   C58       1.0  0.43672  0.03380  0.14124  1.0000
  O   O18       1.0  0.49519  0.04809  0.07899  1.0000
  C   C59       1.0  0.01702  0.17183  0.97744  1.0000
  H   H35       1.0  0.10440  0.18880  0.97100  1.0000
  N   N22       1.0  0.67755  0.20948  0.88794  1.0000
  C   C60       1.0  0.75613  0.11941  0.99520  1.0000
  H   H36       1.0  0.66910  0.10140  0.00030  1.0000
  C   C61       1.0  0.78559  0.17533  0.93616  1.0000
  C   C62       1.0  0.91459  0.20059  0.92552  1.0000
  H   H37       1.0  0.93290  0.23660  0.88390  1.0000
  N   N23       1.0  0.55870  0.17122  0.87892  1.0000
  C   C63       1.0  0.66605  0.28131  0.85528  1.0000
  H   H38       1.0  0.73400  0.31860  0.85490  1.0000
  N   N24       1.0  0.54318  0.29171  0.82331  1.0000
  C   C64       1.0  0.48280  0.22306  0.83958  1.0000
  H   H39       1.0  0.39390  0.21310  0.82410  1.0000
  H   H40       1.0  0.25500  0.08320  0.03040  1.0000
  O   O19       1.0  0.12316  0.03173  0.34166  1.0000
  N   N25       1.0  0.22252  0.07814  0.07659  1.0000
  C   C65       1.0  0.09533  0.08931  0.09731  1.0000
  O   O20       1.0  0.33184  0.99531  0.32059  1.0000
  N   N26       1.0  0.82337  0.04168  0.39794  1.0000
  O   O21       1.0  0.82496  0.97167  0.24231  1.0000
  O   O22       1.0  0.55911  0.83943  0.40400  1.0000
  H   H41       1.0  0.60060  0.85260  0.36320  1.0000
  O   O23       1.0  0.69540  0.87429  0.28424  1.0000
  N   N27       1.0  0.70813  0.00904  0.50682  1.0000
  C   C66       1.0  0.79793  0.05931  0.47660  1.0000
  C   C67       1.0  0.67457  0.95560  0.44628  1.0000
  C   C68       1.0  0.74683  0.97675  0.37847  1.0000
  O   O24       1.0  0.53625  0.88360  0.53247  1.0000
  C   C69       1.0  0.75626  0.93875  0.29540  1.0000
  C   C70       1.0  0.00001  0.13481  0.51576  1.0000
  H   H42       1.0  0.04410  0.10840  0.47420  1.0000
  C   C71       1.0  0.58284  0.88950  0.46444  1.0000
  C   C72       1.0  0.79914  0.16203  0.58739  1.0000
  H   H43       1.0  0.70800  0.15430  0.59360  1.0000
  N   N28       1.0  0.23659  0.34142  0.74989  1.0000
  N   N29       1.0  0.01973  0.30685  0.75330  1.0000
  C   C73       1.0  0.06943  0.18780  0.56652  1.0000
  H   H44       1.0  0.15950  0.19770  0.55860  1.0000
  C   C74       1.0  0.00381  0.22571  0.62893  1.0000
  C   C75       1.0  0.11880  0.34568  0.78967  1.0000
  H   H45       1.0  0.10950  0.37390  0.83860  1.0000
  C   C76       1.0  0.86814  0.21460  0.63891  1.0000
  H   H46       1.0  0.82390  0.24210  0.67970  1.0000
  N   N30       1.0  0.07754  0.27566  0.68546  1.0000
  C   C77       1.0  0.20568  0.29689  0.68492  1.0000
  H   H47       1.0  0.26500  0.28240  0.64450  1.0000
  H   H48       1.0  0.68400  0.00730  0.55470  1.0000
  C   C78       1.0  0.86503  0.12096  0.52670  1.0000
  O   O25       1.0  0.37684  0.53173  0.15834  1.0000
  N   N31       1.0  0.27748  0.57814  0.42341  1.0000
  C   C79       1.0  0.40467  0.58931  0.40269  1.0000
  O   O26       1.0  0.16816  0.49531  0.17941  1.0000
  C   C80       1.0  0.51084  0.61764  0.46092  1.0000
  N   N32       1.0  0.42116  0.57119  0.32326  1.0000
  O   O27       1.0  0.00253  0.50309  0.29298  1.0000
  H   H49       1.0  0.05460  0.50100  0.25490  1.0000
  C   C81       1.0  0.20769  0.55016  0.35489  1.0000
  C   C82       1.0  0.64083  0.59094  0.45349  1.0000
  H   H50       1.0  0.65910  0.55340  0.41350  1.0000
  C   C83       1.0  0.28069  0.52240  0.20402  1.0000
  C   C84       1.0  0.29794  0.54598  0.29311  1.0000
  C   C85       1.0  0.06328  0.53380  0.35876  1.0000
  O   O28       1.0  0.00481  0.54809  0.42101  1.0000
  C   C86       1.0  0.48298  0.67183  0.52256  1.0000
  H   H51       1.0  0.39560  0.68880  0.52900  1.0000
  N   N33       1.0  0.82245  0.70948  0.61206  1.0000
  C   C87       1.0  0.74387  0.61941  0.50480  1.0000
  H   H52       1.0  0.83090  0.60140  0.49970  1.0000
  C   C88       1.0  0.71441  0.67533  0.56384  1.0000
  C   C89       1.0  0.58541  0.70059  0.57448  1.0000
  H   H53       1.0  0.56710  0.73660  0.61610  1.0000
  N   N34       1.0  0.94130  0.67122  0.62108  1.0000
  C   C90       1.0  0.83395  0.78131  0.64472  1.0000
  H   H54       1.0  0.76600  0.81860  0.64510  1.0000
  N   N35       1.0  0.95682  0.79171  0.67669  1.0000
  C   C91       1.0  0.01720  0.72306  0.66042  1.0000
  H   H55       1.0  0.10610  0.71310  0.67590  1.0000
  H   H56       1.0  0.24500  0.58320  0.46960  1.0000
  C   C92       1.0  0.63497  0.62096  0.97330  1.0000
  N   N36       1.0  0.67663  0.54168  0.10206  1.0000
  O   O29       1.0  0.67504  0.47167  0.25769  1.0000
  O   O30       1.0  0.94089  0.33943  0.09600  1.0000
  H   H57       1.0  0.89940  0.35260  0.13680  1.0000
  O   O31       1.0  0.80460  0.37429  0.21576  1.0000
  N   N37       1.0  0.79187  0.50904  0.99318  1.0000
  C   C93       1.0  0.70207  0.55931  0.02340  1.0000
  C   C94       1.0  0.82543  0.45560  0.05372  1.0000
  C   C95       1.0  0.75317  0.47675  0.12153  1.0000
  O   O32       1.0  0.96375  0.38360  0.96753  1.0000
  C   C96       1.0  0.74374  0.43875  0.20460  1.0000
  C   C97       1.0  0.49999  0.63481  0.98424  1.0000
  H   H58       1.0  0.45590  0.60840  0.02580  1.0000
  C   C98       1.0  0.91716  0.38950  0.03556  1.0000
  C   C99       1.0  0.70086  0.66203  0.91261  1.0000
  H   H59       1.0  0.79200  0.65430  0.90640  1.0000
  N   N38       1.0  0.26341  0.84142  0.75011  1.0000
  N   N39       1.0  0.48027  0.80685  0.74670  1.0000
  C   C100      1.0  0.43057  0.68780  0.93348  1.0000
  H   H60       1.0  0.34050  0.69770  0.94140  1.0000
  C   C101      1.0  0.49619  0.72571  0.87107  1.0000
  C   C102      1.0  0.38120  0.84568  0.71033  1.0000
  H   H61       1.0  0.39050  0.87390  0.66140  1.0000
  C   C103      1.0  0.63186  0.71460  0.86109  1.0000
  H   H62       1.0  0.67610  0.74210  0.82030  1.0000
  N   N40       1.0  0.42246  0.77566  0.81454  1.0000
  C   C104      1.0  0.29432  0.79689  0.81508  1.0000
  H   H63       1.0  0.23500  0.78240  0.85550  1.0000
  H   H64       1.0  0.81600  0.50730  0.94530  1.0000
  Cd  Cd1       1.0  0.06755  0.91074  0.71697  1.0000
  Cd  Cd2       1.0  0.93246  0.08926  0.28303  1.0000
  Cd  Cd3       1.0  0.43245  0.41074  0.78303  1.0000
  Cd  Cd4       1.0  0.56755  0.58926  0.21697  1.0000
