data_image0
_chemical_formula_structural       O2C4OHO2C4OH2O2C4OHO2C4OHO2C4OHO2C4O3C4OHO2C4OHC3OHO2C4OHO2C4OHO2C4OHO2CO2C4OHO2C4OHO2C4OHO2C4OHO2C4OHO2C4OHNCSNCSNCSNCSNCSNCSNCSNCSNCSNCSNCSNCSNCSNCSNCSNCSNCSNCSMg18O2C4OHO2C4OH2O2C4OHO2C4OHO2C4OHO2C4O3C4OHO2C4OHC3OHO2C4OHO2C4OHO2C4OHO2CO2C4OHO2C4OHO2C4OHO2C4OHO2C4OHO2C4OHNCSNCSNCSNCSNCSNCSNCSNCSNCSNCSNCSNCSNCSNCSNCSNCSNCSNCSMg18
_chemical_formula_sum              "O108 C180 H36 N36 S36 Mg36"
_cell_length_a       25.9075
_cell_length_b       25.9075
_cell_length_c       13.8332
_cell_angle_alpha    90
_cell_angle_beta     90
_cell_angle_gamma    120

_space_group_name_H-M_alt    "P 1"
_space_group_IT_number       1

loop_
  _space_group_symop_operation_xyz
  'x, y, z'

loop_
  _atom_site_type_symbol
  _atom_site_label
  _atom_site_symmetry_multiplicity
  _atom_site_fract_x
  _atom_site_fract_y
  _atom_site_fract_z
  _atom_site_occupancy
  O   O1        1.0  0.01789  0.41464  0.41221  1.0000
  O   O2        1.0  0.99142  0.36012  0.09167  1.0000
  C   C1        1.0  0.00801  0.45438  0.45653  1.0000
  C   C2        1.0  0.98174  0.40163  0.12180  1.0000
  C   C3        1.0  0.01335  0.50257  0.40294  1.0000
  C   C4        1.0  0.99292  0.45110  0.05722  1.0000
  O   O3        1.0  0.96172  0.40088  0.20668  1.0000
  H   H1        1.0  0.02263  0.50395  0.32605  1.0000
  O   O4        1.0  0.98211  0.58536  0.08779  1.0000
  O   O5        1.0  0.00858  0.63988  0.40833  1.0000
  C   C5        1.0  0.99199  0.54562  0.04347  1.0000
  C   C6        1.0  0.01826  0.59837  0.37820  1.0000
  C   C7        1.0  0.98665  0.49743  0.09706  1.0000
  C   C8        1.0  0.00708  0.54890  0.44277  1.0000
  O   O6        1.0  0.03828  0.59912  0.29332  1.0000
  H   H2        1.0  0.97737  0.49605  0.17394  1.0000
  H   H3        1.0  0.64404  0.82938  0.34061  1.0000
  O   O7        1.0  0.68456  0.74797  0.07888  1.0000
  O   O8        1.0  0.65809  0.69345  0.25833  1.0000
  C   C9        1.0  0.67468  0.78771  0.12319  1.0000
  C   C10       1.0  0.64841  0.73496  0.28847  1.0000
  C   C11       1.0  0.68002  0.83590  0.06960  1.0000
  C   C12       1.0  0.65959  0.78443  0.22389  1.0000
  O   O9        1.0  0.62839  0.73421  0.37334  1.0000
  H   H4        1.0  0.68930  0.83728  0.49272  1.0000
  O   O10       1.0  0.64878  0.91869  0.25445  1.0000
  O   O11       1.0  0.67525  0.97321  0.07499  1.0000
  C   C13       1.0  0.65866  0.87895  0.21014  1.0000
  C   C14       1.0  0.68493  0.93170  0.04487  1.0000
  C   C15       1.0  0.65332  0.83076  0.26373  1.0000
  C   C16       1.0  0.67375  0.88223  0.10944  1.0000
  O   O12       1.0  0.70495  0.93245  0.45998  1.0000
  H   H5        1.0  0.35596  0.17062  0.15939  1.0000
  O   O13       1.0  0.31544  0.25203  0.42113  1.0000
  O   O14       1.0  0.34191  0.30655  0.24166  1.0000
  C   C17       1.0  0.32532  0.21229  0.37681  1.0000
  C   C18       1.0  0.35159  0.26504  0.21154  1.0000
  C   C19       1.0  0.31998  0.16410  0.43040  1.0000
  C   C20       1.0  0.34041  0.21557  0.27611  1.0000
  O   O15       1.0  0.37161  0.26579  0.12665  1.0000
  H   H6        1.0  0.31070  0.16272  0.00728  1.0000
  O   O16       1.0  0.35122  0.08131  0.24555  1.0000
  O   O17       1.0  0.32475  0.02679  0.42501  1.0000
  C   C21       1.0  0.34134  0.12105  0.28986  1.0000
  C   C22       1.0  0.31507  0.06830  0.45514  1.0000
  C   C23       1.0  0.34668  0.16924  0.23627  1.0000
  C   C24       1.0  0.32625  0.11777  0.39056  1.0000
  O   O18       1.0  0.29505  0.06755  0.04002  1.0000
  O   O19       1.0  0.58536  0.60325  0.41221  1.0000
  O   O20       1.0  0.63988  0.63130  0.09167  1.0000
  C   C25       1.0  0.54562  0.55363  0.45653  1.0000
  C   C26       1.0  0.59837  0.58011  0.12180  1.0000
  C   C27       1.0  0.49743  0.51078  0.40294  1.0000
  C   C28       1.0  0.54890  0.54182  0.05722  1.0000
  O   O21       1.0  0.59912  0.56084  0.20668  1.0000
  H   H7        1.0  0.49605  0.51868  0.32605  1.0000
  O   O22       1.0  0.41464  0.39675  0.08779  1.0000
  O   O23       1.0  0.36012  0.36870  0.40833  1.0000
  C   C29       1.0  0.45438  0.44637  0.04347  1.0000
  C   C30       1.0  0.40163  0.41989  0.37820  1.0000
  C   C31       1.0  0.50257  0.48922  0.09706  1.0000
  C   C32       1.0  0.45110  0.45818  0.44277  1.0000
  O   O24       1.0  0.40088  0.43916  0.29332  1.0000
  H   H8        1.0  0.50395  0.48132  0.17394  1.0000
  C   C33       1.0  0.06830  0.75322  0.04487  1.0000
  C   C34       1.0  0.16924  0.82255  0.26373  1.0000
  C   C35       1.0  0.11777  0.79151  0.10944  1.0000
  O   O25       1.0  0.06755  0.77249  0.45998  1.0000
  H   H9        1.0  0.17062  0.81465  0.34061  1.0000
  O   O26       1.0  0.25203  0.93658  0.07888  1.0000
  O   O27       1.0  0.30655  0.96463  0.25833  1.0000
  C   C36       1.0  0.21229  0.88696  0.12319  1.0000
  C   C37       1.0  0.26504  0.91344  0.28847  1.0000
  C   C38       1.0  0.16410  0.84411  0.06960  1.0000
  C   C39       1.0  0.21557  0.87515  0.22389  1.0000
  O   O28       1.0  0.26579  0.89417  0.37334  1.0000
  H   H10       1.0  0.16272  0.85201  0.49272  1.0000
  O   O29       1.0  0.08131  0.73008  0.25445  1.0000
  O   O30       1.0  0.02679  0.70203  0.07499  1.0000
  C   C40       1.0  0.12105  0.77970  0.21014  1.0000
  C   C41       1.0  0.93170  0.24678  0.45514  1.0000
  C   C42       1.0  0.83076  0.17745  0.23627  1.0000
  C   C43       1.0  0.88223  0.20849  0.39056  1.0000
  O   O31       1.0  0.93245  0.22751  0.04002  1.0000
  H   H11       1.0  0.82938  0.18535  0.15939  1.0000
  O   O32       1.0  0.74797  0.06342  0.42113  1.0000
  O   O33       1.0  0.69345  0.03537  0.24166  1.0000
  C   C44       1.0  0.78771  0.11304  0.37681  1.0000
  C   C45       1.0  0.73496  0.08656  0.21154  1.0000
  C   C46       1.0  0.83590  0.15589  0.43040  1.0000
  C   C47       1.0  0.78443  0.12485  0.27611  1.0000
  O   O34       1.0  0.73421  0.10583  0.12665  1.0000
  H   H12       1.0  0.83728  0.14799  0.00728  1.0000
  O   O35       1.0  0.91869  0.26992  0.24555  1.0000
  O   O36       1.0  0.97321  0.29797  0.42501  1.0000
  C   C48       1.0  0.87895  0.22030  0.28986  1.0000
  O   O37       1.0  0.39675  0.98211  0.41221  1.0000
  O   O38       1.0  0.36870  0.00858  0.09167  1.0000
  C   C49       1.0  0.44637  0.99199  0.45653  1.0000
  C   C50       1.0  0.41989  0.01826  0.12180  1.0000
  C   C51       1.0  0.48922  0.98665  0.40294  1.0000
  C   C52       1.0  0.45818  0.00708  0.05722  1.0000
  O   O39       1.0  0.43916  0.03828  0.20668  1.0000
  H   H13       1.0  0.48132  0.97737  0.32605  1.0000
  O   O40       1.0  0.60325  0.01789  0.08779  1.0000
  O   O41       1.0  0.63130  0.99142  0.40833  1.0000
  C   C53       1.0  0.55363  0.00801  0.04347  1.0000
  C   C54       1.0  0.58011  0.98174  0.37820  1.0000
  C   C55       1.0  0.51078  0.01335  0.09706  1.0000
  C   C56       1.0  0.54182  0.99292  0.44277  1.0000
  O   O42       1.0  0.56084  0.96172  0.29332  1.0000
  H   H14       1.0  0.51868  0.02263  0.17394  1.0000
  O   O43       1.0  0.26992  0.35122  0.25445  1.0000
  O   O44       1.0  0.29797  0.32475  0.07499  1.0000
  C   C57       1.0  0.22030  0.34134  0.21014  1.0000
  C   C58       1.0  0.24678  0.31507  0.04487  1.0000
  C   C59       1.0  0.17745  0.34668  0.26373  1.0000
  C   C60       1.0  0.20849  0.32625  0.10944  1.0000
  O   O45       1.0  0.22751  0.29505  0.45998  1.0000
  H   H15       1.0  0.18535  0.35596  0.34061  1.0000
  O   O46       1.0  0.06342  0.31544  0.07888  1.0000
  O   O47       1.0  0.03537  0.34191  0.25833  1.0000
  C   C61       1.0  0.11304  0.32532  0.12319  1.0000
  C   C62       1.0  0.08656  0.35159  0.28847  1.0000
  C   C63       1.0  0.15589  0.31998  0.06960  1.0000
  C   C64       1.0  0.12485  0.34041  0.22389  1.0000
  O   O48       1.0  0.10583  0.37161  0.37334  1.0000
  H   H16       1.0  0.14799  0.31070  0.49272  1.0000
  O   O49       1.0  0.73008  0.64878  0.24555  1.0000
  O   O50       1.0  0.70203  0.67525  0.42501  1.0000
  C   C65       1.0  0.77970  0.65866  0.28986  1.0000
  C   C66       1.0  0.75322  0.68493  0.45514  1.0000
  C   C67       1.0  0.82255  0.65332  0.23627  1.0000
  C   C68       1.0  0.79151  0.67375  0.39056  1.0000
  O   O51       1.0  0.77249  0.70495  0.04002  1.0000
  H   H17       1.0  0.81465  0.64404  0.15939  1.0000
  O   O52       1.0  0.93658  0.68456  0.42113  1.0000
  O   O53       1.0  0.96463  0.65809  0.24166  1.0000
  C   C69       1.0  0.88696  0.67468  0.37681  1.0000
  C   C70       1.0  0.91344  0.64841  0.21154  1.0000
  C   C71       1.0  0.84411  0.68002  0.43040  1.0000
  C   C72       1.0  0.87515  0.65959  0.27611  1.0000
  O   O54       1.0  0.89417  0.62839  0.12665  1.0000
  H   H18       1.0  0.85201  0.68930  0.00728  1.0000
  N   N1        1.0  0.45528  0.32279  0.46847  1.0000
  C   C73       1.0  0.49955  0.32584  0.49967  1.0000
  S   S1        1.0  0.56158  0.33024  0.04084  1.0000
  N   N2        1.0  0.12195  0.65612  0.13514  1.0000
  C   C74       1.0  0.16622  0.65917  0.16633  1.0000
  S   S2        1.0  0.22825  0.66357  0.20750  1.0000
  N   N3        1.0  0.78861  0.98946  0.30180  1.0000
  C   C75       1.0  0.83288  0.99251  0.33300  1.0000
  S   S3        1.0  0.89491  0.99691  0.37417  1.0000
  N   N4        1.0  0.67721  0.13249  0.46847  1.0000
  C   C76       1.0  0.67416  0.17371  0.49967  1.0000
  S   S4        1.0  0.66976  0.23134  0.04084  1.0000
  N   N5        1.0  0.34388  0.46582  0.13514  1.0000
  C   C77       1.0  0.34083  0.50704  0.16633  1.0000
  S   S5        1.0  0.33643  0.56467  0.20750  1.0000
  N   N6        1.0  0.01054  0.79916  0.30180  1.0000
  C   C78       1.0  0.00749  0.84038  0.33300  1.0000
  S   S6        1.0  0.00309  0.89801  0.37417  1.0000
  N   N7        1.0  0.86751  0.54472  0.46847  1.0000
  C   C79       1.0  0.82629  0.50045  0.49967  1.0000
  S   S7        1.0  0.76866  0.43842  0.04084  1.0000
  N   N8        1.0  0.53418  0.87805  0.13514  1.0000
  C   C80       1.0  0.49296  0.83378  0.16633  1.0000
  S   S8        1.0  0.43533  0.77175  0.20750  1.0000
  N   N9        1.0  0.20084  0.21139  0.30180  1.0000
  C   C81       1.0  0.15962  0.16712  0.33300  1.0000
  S   S9        1.0  0.10199  0.10509  0.37417  1.0000
  N   N10       1.0  0.54472  0.67721  0.03153  1.0000
  C   C82       1.0  0.50045  0.67416  0.00034  1.0000
  S   S10       1.0  0.43842  0.66976  0.45916  1.0000
  N   N11       1.0  0.21139  0.01054  0.19820  1.0000
  C   C83       1.0  0.16712  0.00749  0.16700  1.0000
  S   S11       1.0  0.10509  0.00309  0.12583  1.0000
  N   N12       1.0  0.87805  0.34388  0.36487  1.0000
  C   C84       1.0  0.83378  0.34083  0.33367  1.0000
  S   S12       1.0  0.77175  0.33643  0.29250  1.0000
  N   N13       1.0  0.32279  0.86751  0.03153  1.0000
  C   C85       1.0  0.32584  0.82629  0.00034  1.0000
  S   S13       1.0  0.33024  0.76866  0.45916  1.0000
  N   N14       1.0  0.98946  0.20084  0.19820  1.0000
  C   C86       1.0  0.99251  0.15962  0.16700  1.0000
  S   S14       1.0  0.99691  0.10199  0.12583  1.0000
  N   N15       1.0  0.65612  0.53418  0.36487  1.0000
  C   C87       1.0  0.65917  0.49296  0.33367  1.0000
  S   S15       1.0  0.66357  0.43533  0.29250  1.0000
  N   N16       1.0  0.13249  0.45528  0.03153  1.0000
  C   C88       1.0  0.17371  0.49955  0.00034  1.0000
  S   S16       1.0  0.23134  0.56158  0.45916  1.0000
  N   N17       1.0  0.79916  0.78861  0.19820  1.0000
  C   C89       1.0  0.84038  0.83288  0.16700  1.0000
  S   S17       1.0  0.89801  0.89491  0.12583  1.0000
  N   N18       1.0  0.46582  0.12195  0.36487  1.0000
  C   C90       1.0  0.50704  0.16622  0.33367  1.0000
  S   S18       1.0  0.56467  0.22825  0.29250  1.0000
  Mg  Mg1       1.0  0.05371  0.37133  0.48575  1.0000
  Mg  Mg2       1.0  0.34905  0.38704  0.18091  1.0000
  Mg  Mg3       1.0  0.27962  0.29534  0.34758  1.0000
  Mg  Mg4       1.0  0.31762  0.94629  0.48575  1.0000
  Mg  Mg5       1.0  0.72038  0.70466  0.15242  1.0000
  Mg  Mg6       1.0  0.01571  0.72038  0.34758  1.0000
  Mg  Mg7       1.0  0.37133  0.31762  0.01425  1.0000
  Mg  Mg8       1.0  0.98429  0.27962  0.15242  1.0000
  Mg  Mg9       1.0  0.38704  0.03800  0.31909  1.0000
  Mg  Mg10      1.0  0.03800  0.65095  0.18091  1.0000
  Mg  Mg11      1.0  0.65095  0.61296  0.31909  1.0000
  Mg  Mg12      1.0  0.62867  0.68238  0.48575  1.0000
  Mg  Mg13      1.0  0.70466  0.98429  0.34758  1.0000
  Mg  Mg14      1.0  0.94629  0.62867  0.01425  1.0000
  Mg  Mg15      1.0  0.29534  0.01571  0.15242  1.0000
  Mg  Mg16      1.0  0.68238  0.05371  0.01425  1.0000
  Mg  Mg17      1.0  0.61296  0.96200  0.18091  1.0000
  Mg  Mg18      1.0  0.96200  0.34905  0.31909  1.0000
  O   O55       1.0  0.01789  0.41464  0.91221  1.0000
  O   O56       1.0  0.99142  0.36012  0.59167  1.0000
  C   C91       1.0  0.00801  0.45438  0.95652  1.0000
  C   C92       1.0  0.98174  0.40163  0.62180  1.0000
  C   C93       1.0  0.01335  0.50257  0.90293  1.0000
  C   C94       1.0  0.99292  0.45110  0.55722  1.0000
  O   O57       1.0  0.96172  0.40088  0.70668  1.0000
  H   H19       1.0  0.02263  0.50395  0.82605  1.0000
  O   O58       1.0  0.98211  0.58536  0.58779  1.0000
  O   O59       1.0  0.00858  0.63988  0.90833  1.0000
  C   C95       1.0  0.99199  0.54562  0.54348  1.0000
  C   C96       1.0  0.01826  0.59837  0.87820  1.0000
  C   C97       1.0  0.98665  0.49743  0.59706  1.0000
  C   C98       1.0  0.00708  0.54890  0.94277  1.0000
  O   O60       1.0  0.03828  0.59912  0.79332  1.0000
  H   H20       1.0  0.97737  0.49605  0.67394  1.0000
  H   H21       1.0  0.64404  0.82938  0.84061  1.0000
  O   O61       1.0  0.68456  0.74797  0.57888  1.0000
  O   O62       1.0  0.65809  0.69345  0.75833  1.0000
  C   C99       1.0  0.67468  0.78771  0.62319  1.0000
  C   C100      1.0  0.64841  0.73496  0.78847  1.0000
  C   C101      1.0  0.68002  0.83590  0.56960  1.0000
  C   C102      1.0  0.65959  0.78443  0.72389  1.0000
  O   O63       1.0  0.62839  0.73421  0.87334  1.0000
  H   H22       1.0  0.68930  0.83728  0.99272  1.0000
  O   O64       1.0  0.64878  0.91869  0.75445  1.0000
  O   O65       1.0  0.67525  0.97321  0.57500  1.0000
  C   C103      1.0  0.65866  0.87895  0.71014  1.0000
  C   C104      1.0  0.68493  0.93170  0.54487  1.0000
  C   C105      1.0  0.65332  0.83076  0.76373  1.0000
  C   C106      1.0  0.67375  0.88223  0.60944  1.0000
  O   O66       1.0  0.70495  0.93245  0.95998  1.0000
  H   H23       1.0  0.35596  0.17062  0.65939  1.0000
  O   O67       1.0  0.31544  0.25203  0.92113  1.0000
  O   O68       1.0  0.34191  0.30655  0.74167  1.0000
  C   C107      1.0  0.32532  0.21229  0.87681  1.0000
  C   C108      1.0  0.35159  0.26504  0.71154  1.0000
  C   C109      1.0  0.31998  0.16410  0.93040  1.0000
  C   C110      1.0  0.34041  0.21557  0.77611  1.0000
  O   O69       1.0  0.37161  0.26579  0.62665  1.0000
  H   H24       1.0  0.31070  0.16272  0.50728  1.0000
  O   O70       1.0  0.35122  0.08131  0.74555  1.0000
  O   O71       1.0  0.32475  0.02679  0.92500  1.0000
  C   C111      1.0  0.34134  0.12105  0.78986  1.0000
  C   C112      1.0  0.31507  0.06830  0.95513  1.0000
  C   C113      1.0  0.34668  0.16924  0.73627  1.0000
  C   C114      1.0  0.32625  0.11777  0.89056  1.0000
  O   O72       1.0  0.29505  0.06755  0.54002  1.0000
  O   O73       1.0  0.58536  0.60325  0.91221  1.0000
  O   O74       1.0  0.63988  0.63130  0.59167  1.0000
  C   C115      1.0  0.54562  0.55363  0.95652  1.0000
  C   C116      1.0  0.59837  0.58011  0.62180  1.0000
  C   C117      1.0  0.49743  0.51078  0.90293  1.0000
  C   C118      1.0  0.54890  0.54182  0.55722  1.0000
  O   O75       1.0  0.59912  0.56084  0.70668  1.0000
  H   H25       1.0  0.49605  0.51868  0.82605  1.0000
  O   O76       1.0  0.41464  0.39675  0.58779  1.0000
  O   O77       1.0  0.36012  0.36870  0.90833  1.0000
  C   C119      1.0  0.45438  0.44637  0.54348  1.0000
  C   C120      1.0  0.40163  0.41989  0.87820  1.0000
  C   C121      1.0  0.50257  0.48922  0.59706  1.0000
  C   C122      1.0  0.45110  0.45818  0.94277  1.0000
  O   O78       1.0  0.40088  0.43916  0.79332  1.0000
  H   H26       1.0  0.50395  0.48132  0.67394  1.0000
  C   C123      1.0  0.06830  0.75322  0.54487  1.0000
  C   C124      1.0  0.16924  0.82255  0.76373  1.0000
  C   C125      1.0  0.11777  0.79151  0.60944  1.0000
  O   O79       1.0  0.06755  0.77249  0.95998  1.0000
  H   H27       1.0  0.17062  0.81465  0.84061  1.0000
  O   O80       1.0  0.25203  0.93658  0.57888  1.0000
  O   O81       1.0  0.30655  0.96463  0.75833  1.0000
  C   C126      1.0  0.21229  0.88696  0.62319  1.0000
  C   C127      1.0  0.26504  0.91344  0.78847  1.0000
  C   C128      1.0  0.16410  0.84411  0.56960  1.0000
  C   C129      1.0  0.21557  0.87515  0.72389  1.0000
  O   O82       1.0  0.26579  0.89417  0.87334  1.0000
  H   H28       1.0  0.16272  0.85201  0.99272  1.0000
  O   O83       1.0  0.08131  0.73008  0.75445  1.0000
  O   O84       1.0  0.02679  0.70203  0.57500  1.0000
  C   C130      1.0  0.12105  0.77970  0.71014  1.0000
  C   C131      1.0  0.93170  0.24678  0.95513  1.0000
  C   C132      1.0  0.83076  0.17745  0.73627  1.0000
  C   C133      1.0  0.88223  0.20849  0.89056  1.0000
  O   O85       1.0  0.93245  0.22751  0.54002  1.0000
  H   H29       1.0  0.82938  0.18535  0.65939  1.0000
  O   O86       1.0  0.74797  0.06342  0.92113  1.0000
  O   O87       1.0  0.69345  0.03537  0.74167  1.0000
  C   C134      1.0  0.78771  0.11304  0.87681  1.0000
  C   C135      1.0  0.73496  0.08656  0.71154  1.0000
  C   C136      1.0  0.83590  0.15589  0.93040  1.0000
  C   C137      1.0  0.78443  0.12485  0.77611  1.0000
  O   O88       1.0  0.73421  0.10583  0.62665  1.0000
  H   H30       1.0  0.83728  0.14799  0.50728  1.0000
  O   O89       1.0  0.91869  0.26992  0.74555  1.0000
  O   O90       1.0  0.97321  0.29797  0.92500  1.0000
  C   C138      1.0  0.87895  0.22030  0.78986  1.0000
  O   O91       1.0  0.39675  0.98211  0.91221  1.0000
  O   O92       1.0  0.36870  0.00858  0.59167  1.0000
  C   C139      1.0  0.44637  0.99199  0.95652  1.0000
  C   C140      1.0  0.41989  0.01826  0.62180  1.0000
  C   C141      1.0  0.48922  0.98665  0.90293  1.0000
  C   C142      1.0  0.45818  0.00708  0.55722  1.0000
  O   O93       1.0  0.43916  0.03828  0.70668  1.0000
  H   H31       1.0  0.48132  0.97737  0.82605  1.0000
  O   O94       1.0  0.60325  0.01789  0.58779  1.0000
  O   O95       1.0  0.63130  0.99142  0.90833  1.0000
  C   C143      1.0  0.55363  0.00801  0.54348  1.0000
  C   C144      1.0  0.58011  0.98174  0.87820  1.0000
  C   C145      1.0  0.51078  0.01335  0.59706  1.0000
  C   C146      1.0  0.54182  0.99292  0.94277  1.0000
  O   O96       1.0  0.56084  0.96172  0.79332  1.0000
  H   H32       1.0  0.51868  0.02263  0.67394  1.0000
  O   O97       1.0  0.26992  0.35122  0.75445  1.0000
  O   O98       1.0  0.29797  0.32475  0.57500  1.0000
  C   C147      1.0  0.22030  0.34134  0.71014  1.0000
  C   C148      1.0  0.24678  0.31507  0.54487  1.0000
  C   C149      1.0  0.17745  0.34668  0.76373  1.0000
  C   C150      1.0  0.20849  0.32625  0.60944  1.0000
  O   O99       1.0  0.22751  0.29505  0.95998  1.0000
  H   H33       1.0  0.18535  0.35596  0.84061  1.0000
  O   O100      1.0  0.06342  0.31544  0.57888  1.0000
  O   O101      1.0  0.03537  0.34191  0.75833  1.0000
  C   C151      1.0  0.11304  0.32532  0.62319  1.0000
  C   C152      1.0  0.08656  0.35159  0.78847  1.0000
  C   C153      1.0  0.15589  0.31998  0.56960  1.0000
  C   C154      1.0  0.12485  0.34041  0.72389  1.0000
  O   O102      1.0  0.10583  0.37161  0.87334  1.0000
  H   H34       1.0  0.14799  0.31070  0.99272  1.0000
  O   O103      1.0  0.73008  0.64878  0.74555  1.0000
  O   O104      1.0  0.70203  0.67525  0.92500  1.0000
  C   C155      1.0  0.77970  0.65866  0.78986  1.0000
  C   C156      1.0  0.75322  0.68493  0.95513  1.0000
  C   C157      1.0  0.82255  0.65332  0.73627  1.0000
  C   C158      1.0  0.79151  0.67375  0.89056  1.0000
  O   O105      1.0  0.77249  0.70495  0.54002  1.0000
  H   H35       1.0  0.81465  0.64404  0.65939  1.0000
  O   O106      1.0  0.93658  0.68456  0.92113  1.0000
  O   O107      1.0  0.96463  0.65809  0.74167  1.0000
  C   C159      1.0  0.88696  0.67468  0.87681  1.0000
  C   C160      1.0  0.91344  0.64841  0.71154  1.0000
  C   C161      1.0  0.84411  0.68002  0.93040  1.0000
  C   C162      1.0  0.87515  0.65959  0.77611  1.0000
  O   O108      1.0  0.89417  0.62839  0.62665  1.0000
  H   H36       1.0  0.85201  0.68930  0.50728  1.0000
  N   N19       1.0  0.45528  0.32279  0.96847  1.0000
  C   C163      1.0  0.49955  0.32584  0.99966  1.0000
  S   S19       1.0  0.56158  0.33024  0.54084  1.0000
  N   N20       1.0  0.12195  0.65612  0.63514  1.0000
  C   C164      1.0  0.16622  0.65917  0.66633  1.0000
  S   S20       1.0  0.22825  0.66357  0.70750  1.0000
  N   N21       1.0  0.78861  0.98946  0.80180  1.0000
  C   C165      1.0  0.83288  0.99251  0.83300  1.0000
  S   S21       1.0  0.89491  0.99691  0.87417  1.0000
  N   N22       1.0  0.67721  0.13249  0.96847  1.0000
  C   C166      1.0  0.67416  0.17371  0.99966  1.0000
  S   S22       1.0  0.66976  0.23134  0.54084  1.0000
  N   N23       1.0  0.34388  0.46582  0.63514  1.0000
  C   C167      1.0  0.34083  0.50704  0.66633  1.0000
  S   S23       1.0  0.33643  0.56467  0.70750  1.0000
  N   N24       1.0  0.01054  0.79916  0.80180  1.0000
  C   C168      1.0  0.00749  0.84038  0.83300  1.0000
  S   S24       1.0  0.00309  0.89801  0.87417  1.0000
  N   N25       1.0  0.86751  0.54472  0.96847  1.0000
  C   C169      1.0  0.82629  0.50045  0.99966  1.0000
  S   S25       1.0  0.76866  0.43842  0.54084  1.0000
  N   N26       1.0  0.53418  0.87805  0.63514  1.0000
  C   C170      1.0  0.49296  0.83378  0.66633  1.0000
  S   S26       1.0  0.43533  0.77175  0.70750  1.0000
  N   N27       1.0  0.20084  0.21139  0.80180  1.0000
  C   C171      1.0  0.15962  0.16712  0.83300  1.0000
  S   S27       1.0  0.10199  0.10509  0.87417  1.0000
  N   N28       1.0  0.54472  0.67721  0.53153  1.0000
  C   C172      1.0  0.50045  0.67416  0.50033  1.0000
  S   S28       1.0  0.43842  0.66976  0.95916  1.0000
  N   N29       1.0  0.21139  0.01054  0.69820  1.0000
  C   C173      1.0  0.16712  0.00749  0.66700  1.0000
  S   S29       1.0  0.10509  0.00309  0.62583  1.0000
  N   N30       1.0  0.87805  0.34388  0.86487  1.0000
  C   C174      1.0  0.83378  0.34083  0.83367  1.0000
  S   S30       1.0  0.77175  0.33643  0.79250  1.0000
  N   N31       1.0  0.32279  0.86751  0.53153  1.0000
  C   C175      1.0  0.32584  0.82629  0.50033  1.0000
  S   S31       1.0  0.33024  0.76866  0.95916  1.0000
  N   N32       1.0  0.98946  0.20084  0.69820  1.0000
  C   C176      1.0  0.99251  0.15962  0.66700  1.0000
  S   S32       1.0  0.99691  0.10199  0.62583  1.0000
  N   N33       1.0  0.65612  0.53418  0.86487  1.0000
  C   C177      1.0  0.65917  0.49296  0.83367  1.0000
  S   S33       1.0  0.66357  0.43533  0.79250  1.0000
  N   N34       1.0  0.13249  0.45528  0.53153  1.0000
  C   C178      1.0  0.17371  0.49955  0.50033  1.0000
  S   S34       1.0  0.23134  0.56158  0.95916  1.0000
  N   N35       1.0  0.79916  0.78861  0.69820  1.0000
  C   C179      1.0  0.84038  0.83288  0.66700  1.0000
  S   S35       1.0  0.89801  0.89491  0.62583  1.0000
  N   N36       1.0  0.46582  0.12195  0.86487  1.0000
  C   C180      1.0  0.50704  0.16622  0.83367  1.0000
  S   S36       1.0  0.56467  0.22825  0.79250  1.0000
  Mg  Mg19      1.0  0.05371  0.37133  0.98575  1.0000
  Mg  Mg20      1.0  0.34905  0.38704  0.68091  1.0000
  Mg  Mg21      1.0  0.27962  0.29534  0.84759  1.0000
  Mg  Mg22      1.0  0.31762  0.94629  0.98575  1.0000
  Mg  Mg23      1.0  0.72038  0.70466  0.65241  1.0000
  Mg  Mg24      1.0  0.01571  0.72038  0.84759  1.0000
  Mg  Mg25      1.0  0.37133  0.31762  0.51425  1.0000
  Mg  Mg26      1.0  0.98429  0.27962  0.65241  1.0000
  Mg  Mg27      1.0  0.38704  0.03800  0.81908  1.0000
  Mg  Mg28      1.0  0.03800  0.65095  0.68091  1.0000
  Mg  Mg29      1.0  0.65095  0.61296  0.81908  1.0000
  Mg  Mg30      1.0  0.62867  0.68238  0.98575  1.0000
  Mg  Mg31      1.0  0.70466  0.98429  0.84759  1.0000
  Mg  Mg32      1.0  0.94629  0.62867  0.51425  1.0000
  Mg  Mg33      1.0  0.29534  0.01571  0.65241  1.0000
  Mg  Mg34      1.0  0.68238  0.05371  0.51425  1.0000
  Mg  Mg35      1.0  0.61296  0.96200  0.68091  1.0000
  Mg  Mg36      1.0  0.96200  0.34905  0.81908  1.0000
