data_image0
_chemical_formula_structural       O6NCNC3H2CH2CH2CO6NCNC3H2CH2CH2CN2CO6NCNC3H2CH2CH2CO6NCNC3H2N2C3HCH3C3H2CH2CH2CO6NCNC3H2CH2CH2CN2CO6NCNO6NCNC3H2CH2CH2CO6NCNC3H2CH2CH2CN2CEu8
_chemical_formula_sum              "O48 N24 C60 H48 Eu8"
_cell_length_a       12.713
_cell_length_b       16.7745
_cell_length_c       14.7977
_cell_angle_alpha    90
_cell_angle_beta     91.265
_cell_angle_gamma    90

_space_group_name_H-M_alt    "P 1"
_space_group_IT_number       1

loop_
  _space_group_symop_operation_xyz
  'x, y, z'

loop_
  _atom_site_type_symbol
  _atom_site_label
  _atom_site_symmetry_multiplicity
  _atom_site_fract_x
  _atom_site_fract_y
  _atom_site_fract_z
  _atom_site_occupancy
  O   O1        1.0  0.69350  0.78340  0.58000  1.0000
  O   O2        1.0  0.29170  0.61450  0.94470  1.0000
  O   O3        1.0  0.14490  0.67090  0.88470  1.0000
  O   O4        1.0  0.37750  0.32720  0.71980  1.0000
  O   O5        1.0  0.52370  0.76550  0.56380  1.0000
  O   O6        1.0  0.32540  0.42830  0.63630  1.0000
  N   N1        1.0  0.40850  0.65320  0.76800  1.0000
  C   C1        1.0  0.22370  0.62370  0.88380  1.0000
  N   N2        1.0  0.32640  0.53180  0.78830  1.0000
  C   C2        1.0  0.60140  0.78550  0.61170  1.0000
  C   C3        1.0  0.34660  0.39900  0.71290  1.0000
  C   C4        1.0  0.58750  0.81000  0.70960  1.0000
  H   H1        1.0  0.65260  0.79750  0.74460  1.0000
  H   H2        1.0  0.57620  0.86830  0.71250  1.0000
  C   C5        1.0  0.22850  0.57280  0.79880  1.0000
  H   H3        1.0  0.17110  0.53290  0.80000  1.0000
  H   H4        1.0  0.21580  0.60740  0.74550  1.0000
  C   C6        1.0  0.33380  0.44550  0.79950  1.0000
  H   H5        1.0  0.26940  0.42660  0.82930  1.0000
  H   H6        1.0  0.39430  0.43360  0.84050  1.0000
  C   C7        1.0  0.41520  0.57270  0.76780  1.0000
  O   O7        1.0  0.30650  0.78340  0.92000  1.0000
  O   O8        1.0  0.70830  0.61450  0.55530  1.0000
  O   O9        1.0  0.85510  0.67090  0.61530  1.0000
  O   O10       1.0  0.62250  0.32720  0.78020  1.0000
  O   O11       1.0  0.47630  0.76550  0.93620  1.0000
  O   O12       1.0  0.67460  0.42830  0.86370  1.0000
  N   N3        1.0  0.59150  0.65320  0.73200  1.0000
  C   C8        1.0  0.77630  0.62370  0.61620  1.0000
  N   N4        1.0  0.67360  0.53180  0.71170  1.0000
  C   C9        1.0  0.39860  0.78550  0.88830  1.0000
  C   C10       1.0  0.65340  0.39900  0.78710  1.0000
  C   C11       1.0  0.41250  0.81000  0.79040  1.0000
  H   H7        1.0  0.34740  0.79750  0.75540  1.0000
  H   H8        1.0  0.42380  0.86830  0.78750  1.0000
  C   C12       1.0  0.77150  0.57280  0.70120  1.0000
  H   H9        1.0  0.82890  0.53290  0.70000  1.0000
  H   H10       1.0  0.78420  0.60740  0.75450  1.0000
  C   C13       1.0  0.66620  0.44550  0.70050  1.0000
  H   H11       1.0  0.73060  0.42660  0.67070  1.0000
  H   H12       1.0  0.60570  0.43360  0.65950  1.0000
  C   C14       1.0  0.58480  0.57270  0.73220  1.0000
  N   N5        1.0  0.50000  0.77000  0.75000  1.0000
  N   N6        1.0  0.50000  0.52890  0.75000  1.0000
  C   C15       1.0  0.50000  0.68870  0.75000  1.0000
  O   O13       1.0  0.19350  0.28340  0.58000  1.0000
  O   O14       1.0  0.79170  0.11450  0.94470  1.0000
  O   O15       1.0  0.64490  0.17090  0.88470  1.0000
  O   O16       1.0  0.87750  0.82720  0.71980  1.0000
  O   O17       1.0  0.02370  0.26550  0.56380  1.0000
  O   O18       1.0  0.82540  0.92830  0.63630  1.0000
  N   N7        1.0  0.90850  0.15320  0.76800  1.0000
  C   C16       1.0  0.72370  0.12370  0.88380  1.0000
  N   N8        1.0  0.82640  0.03180  0.78830  1.0000
  C   C17       1.0  0.10140  0.28550  0.61170  1.0000
  C   C18       1.0  0.84660  0.89900  0.71290  1.0000
  C   C19       1.0  0.08750  0.31000  0.70960  1.0000
  H   H13       1.0  0.15260  0.29750  0.74460  1.0000
  H   H14       1.0  0.07620  0.36830  0.71250  1.0000
  C   C20       1.0  0.72850  0.07280  0.79880  1.0000
  H   H15       1.0  0.67110  0.03290  0.80000  1.0000
  H   H16       1.0  0.71580  0.10740  0.74550  1.0000
  C   C21       1.0  0.83380  0.94550  0.79950  1.0000
  H   H17       1.0  0.76940  0.92660  0.82930  1.0000
  H   H18       1.0  0.89430  0.93360  0.84050  1.0000
  C   C22       1.0  0.91520  0.07270  0.76780  1.0000
  O   O19       1.0  0.80650  0.28340  0.92000  1.0000
  O   O20       1.0  0.20830  0.11450  0.55530  1.0000
  O   O21       1.0  0.35510  0.17090  0.61530  1.0000
  O   O22       1.0  0.12250  0.82720  0.78020  1.0000
  O   O23       1.0  0.97630  0.26550  0.93620  1.0000
  O   O24       1.0  0.17460  0.92830  0.86370  1.0000
  N   N9        1.0  0.09150  0.15320  0.73200  1.0000
  C   C23       1.0  0.27630  0.12370  0.61620  1.0000
  N   N10       1.0  0.00000  0.27000  0.75000  1.0000
  C   C24       1.0  0.89860  0.28550  0.88830  1.0000
  C   C25       1.0  0.00000  0.18870  0.75000  1.0000
  C   C26       1.0  0.91250  0.31000  0.79040  1.0000
  H   H19       1.0  0.84740  0.29750  0.75540  1.0000
  H   H20       1.0  0.92380  0.36830  0.78750  1.0000
  N   N11       1.0  0.00000  0.02890  0.75000  1.0000
  N   N12       1.0  0.17360  0.03180  0.71170  1.0000
  C   C27       1.0  0.27150  0.07280  0.70120  1.0000
  C   C28       1.0  0.16620  0.94550  0.70050  1.0000
  C   C29       1.0  0.15340  0.89900  0.78710  1.0000
  H   H21       1.0  0.23060  0.92660  0.67070  1.0000
  C   C30       1.0  0.08480  0.07270  0.73220  1.0000
  H   H22       1.0  0.10570  0.93360  0.65950  1.0000
  H   H23       1.0  0.28420  0.10740  0.75450  1.0000
  H   H24       1.0  0.32890  0.03290  0.70000  1.0000
  C   C31       1.0  0.39860  0.21450  0.38830  1.0000
  C   C32       1.0  0.65340  0.60100  0.28710  1.0000
  C   C33       1.0  0.41250  0.19000  0.29040  1.0000
  H   H25       1.0  0.34740  0.20250  0.25540  1.0000
  H   H26       1.0  0.42380  0.13170  0.28750  1.0000
  C   C34       1.0  0.77150  0.42720  0.20120  1.0000
  H   H27       1.0  0.82890  0.46710  0.20000  1.0000
  H   H28       1.0  0.78420  0.39260  0.25450  1.0000
  C   C35       1.0  0.66620  0.55450  0.20050  1.0000
  H   H29       1.0  0.73060  0.57340  0.17070  1.0000
  H   H30       1.0  0.60570  0.56640  0.15950  1.0000
  C   C36       1.0  0.58480  0.42730  0.23220  1.0000
  O   O25       1.0  0.69350  0.21660  0.08000  1.0000
  O   O26       1.0  0.29170  0.38550  0.44470  1.0000
  O   O27       1.0  0.14490  0.32910  0.38470  1.0000
  O   O28       1.0  0.37750  0.67280  0.21980  1.0000
  O   O29       1.0  0.52370  0.23450  0.06380  1.0000
  O   O30       1.0  0.32540  0.57170  0.13630  1.0000
  N   N13       1.0  0.40850  0.34680  0.26800  1.0000
  C   C37       1.0  0.22370  0.37630  0.38380  1.0000
  N   N14       1.0  0.32640  0.46820  0.28830  1.0000
  C   C38       1.0  0.60140  0.21450  0.11170  1.0000
  C   C39       1.0  0.34660  0.60100  0.21290  1.0000
  C   C40       1.0  0.58750  0.19000  0.20960  1.0000
  H   H31       1.0  0.65260  0.20250  0.24460  1.0000
  H   H32       1.0  0.57620  0.13170  0.21250  1.0000
  C   C41       1.0  0.22850  0.42720  0.29880  1.0000
  H   H33       1.0  0.17110  0.46710  0.30000  1.0000
  H   H34       1.0  0.21580  0.39260  0.24550  1.0000
  C   C42       1.0  0.33380  0.55450  0.29950  1.0000
  H   H35       1.0  0.26940  0.57340  0.32930  1.0000
  H   H36       1.0  0.39430  0.56640  0.34050  1.0000
  C   C43       1.0  0.41520  0.42730  0.26780  1.0000
  N   N15       1.0  0.50000  0.23000  0.25000  1.0000
  N   N16       1.0  0.50000  0.47110  0.25000  1.0000
  C   C44       1.0  0.50000  0.31130  0.25000  1.0000
  O   O31       1.0  0.30650  0.21660  0.42000  1.0000
  O   O32       1.0  0.70830  0.38550  0.05530  1.0000
  O   O33       1.0  0.85510  0.32910  0.11530  1.0000
  O   O34       1.0  0.62250  0.67280  0.28020  1.0000
  O   O35       1.0  0.47630  0.23450  0.43620  1.0000
  O   O36       1.0  0.67460  0.57170  0.36370  1.0000
  N   N17       1.0  0.59150  0.34680  0.23200  1.0000
  C   C45       1.0  0.77630  0.37630  0.11620  1.0000
  N   N18       1.0  0.67360  0.46820  0.21170  1.0000
  O   O37       1.0  0.80650  0.71660  0.42000  1.0000
  O   O38       1.0  0.20830  0.88550  0.05530  1.0000
  O   O39       1.0  0.35510  0.82910  0.11530  1.0000
  O   O40       1.0  0.12250  0.17280  0.28020  1.0000
  O   O41       1.0  0.97630  0.73450  0.43620  1.0000
  O   O42       1.0  0.17460  0.07170  0.36370  1.0000
  N   N19       1.0  0.09150  0.84680  0.23200  1.0000
  C   C46       1.0  0.27630  0.87630  0.11620  1.0000
  N   N20       1.0  0.17360  0.96820  0.21170  1.0000
  C   C47       1.0  0.89860  0.71450  0.38830  1.0000
  C   C48       1.0  0.15340  0.10100  0.28710  1.0000
  C   C49       1.0  0.91250  0.69000  0.29040  1.0000
  H   H37       1.0  0.84740  0.70250  0.25540  1.0000
  H   H38       1.0  0.92380  0.63170  0.28750  1.0000
  C   C50       1.0  0.27150  0.92720  0.20120  1.0000
  H   H39       1.0  0.32890  0.96710  0.20000  1.0000
  H   H40       1.0  0.28420  0.89260  0.25450  1.0000
  C   C51       1.0  0.16620  0.05450  0.20050  1.0000
  H   H41       1.0  0.23060  0.07340  0.17070  1.0000
  H   H42       1.0  0.10570  0.06640  0.15950  1.0000
  C   C52       1.0  0.08480  0.92730  0.23220  1.0000
  O   O43       1.0  0.19350  0.71660  0.08000  1.0000
  O   O44       1.0  0.79170  0.88550  0.44470  1.0000
  O   O45       1.0  0.64490  0.82910  0.38470  1.0000
  O   O46       1.0  0.87750  0.17280  0.21980  1.0000
  O   O47       1.0  0.02370  0.73450  0.06380  1.0000
  O   O48       1.0  0.82540  0.07170  0.13630  1.0000
  N   N21       1.0  0.90850  0.84680  0.26800  1.0000
  C   C53       1.0  0.72370  0.87630  0.38380  1.0000
  N   N22       1.0  0.82640  0.96820  0.28830  1.0000
  C   C54       1.0  0.10140  0.71450  0.11170  1.0000
  C   C55       1.0  0.84660  0.10100  0.21290  1.0000
  C   C56       1.0  0.08750  0.69000  0.20960  1.0000
  H   H43       1.0  0.15260  0.70250  0.24460  1.0000
  H   H44       1.0  0.07620  0.63170  0.21250  1.0000
  C   C57       1.0  0.72850  0.92720  0.29880  1.0000
  H   H45       1.0  0.67110  0.96710  0.30000  1.0000
  H   H46       1.0  0.71580  0.89260  0.24550  1.0000
  C   C58       1.0  0.83380  0.05450  0.29950  1.0000
  H   H47       1.0  0.76940  0.07340  0.32930  1.0000
  H   H48       1.0  0.89430  0.06640  0.34050  1.0000
  C   C59       1.0  0.91520  0.92730  0.26780  1.0000
  N   N23       1.0  0.00000  0.73000  0.25000  1.0000
  N   N24       1.0  0.00000  0.97110  0.25000  1.0000
  C   C60       1.0  0.00000  0.81130  0.25000  1.0000
  Eu  Eu1       1.0  0.87598  0.80165  0.55604  1.0000
  Eu  Eu2       1.0  0.37598  0.69835  0.05604  1.0000
  Eu  Eu3       1.0  0.87598  0.19835  0.05604  1.0000
  Eu  Eu4       1.0  0.62402  0.69835  0.44396  1.0000
  Eu  Eu5       1.0  0.12402  0.19835  0.44396  1.0000
  Eu  Eu6       1.0  0.62402  0.30165  0.94396  1.0000
  Eu  Eu7       1.0  0.12402  0.80165  0.94396  1.0000
  Eu  Eu8       1.0  0.37598  0.30165  0.55604  1.0000
