data_image0
_chemical_formula_structural       P2O6C2OCOCHC4HOHOHP2O6C2OCOCHC4HOHOHMg4P2O6C2OCOCHC4HOHOHP2O6C2OCOCHC4HOHOHMg4
_chemical_formula_sum              "P8 O40 C32 H16 Mg8"
_cell_length_a       14.9536
_cell_length_b       9.1819
_cell_length_c       12.392
_cell_angle_alpha    77.113
_cell_angle_beta     75.853
_cell_angle_gamma    75.184

_space_group_name_H-M_alt    "P 1"
_space_group_IT_number       1

loop_
  _space_group_symop_operation_xyz
  'x, y, z'

loop_
  _atom_site_type_symbol
  _atom_site_label
  _atom_site_symmetry_multiplicity
  _atom_site_fract_x
  _atom_site_fract_y
  _atom_site_fract_z
  _atom_site_occupancy
  P   P1        1.0  0.19040  0.14046  0.84781  1.0000
  P   P2        1.0  0.06594  0.85733  0.64823  1.0000
  O   O1        1.0  0.06995  0.86440  0.52560  1.0000
  O   O2        1.0  0.23855  0.19100  0.57970  1.0000
  O   O3        1.0  0.28730  0.05820  0.79410  1.0000
  O   O4        1.0  0.46720  0.92580  0.70820  1.0000
  O   O5        1.0  0.17975  0.13680  0.97110  1.0000
  O   O6        1.0  0.01605  0.78490  0.92250  1.0000
  C   C1        1.0  0.16620  0.34120  0.78390  1.0000
  C   C2        1.0  0.09950  0.65610  0.70690  1.0000
  O   O7        1.0  0.09790  0.30400  0.53790  1.0000
  C   C3        1.0  0.16515  0.28610  0.59450  1.0000
  O   O8        1.0  0.16415  0.71270  0.94640  1.0000
  C   C4        1.0  0.15260  0.44920  0.85220  1.0000
  H   H1        1.0  0.16595  0.41640  0.92600  1.0000
  C   C5        1.0  0.14615  0.39360  0.67490  1.0000
  C   C6        1.0  0.12005  0.60350  0.81550  1.0000
  C   C7        1.0  0.09780  0.71120  0.89970  1.0000
  C   C8        1.0  0.11445  0.54850  0.63720  1.0000
  H   H2        1.0  0.10285  0.58170  0.56270  1.0000
  O   O9        1.0  0.13970  0.92940  0.67000  1.0000
  H   H3        1.0  0.13110  0.02210  0.64000  1.0000
  O   O10       1.0  0.11290  0.07910  0.82160  1.0000
  H   H4        1.0  0.11545  0.98790  0.85430  1.0000
  P   P3        1.0  0.30960  0.85954  0.15219  1.0000
  P   P4        1.0  0.43406  0.14267  0.35177  1.0000
  O   O11       1.0  0.43005  0.13560  0.47440  1.0000
  O   O12       1.0  0.26145  0.80900  0.42030  1.0000
  O   O13       1.0  0.21270  0.94180  0.20590  1.0000
  O   O14       1.0  0.03280  0.07420  0.29180  1.0000
  O   O15       1.0  0.32025  0.86320  0.02890  1.0000
  O   O16       1.0  0.48395  0.21510  0.07750  1.0000
  C   C9        1.0  0.33380  0.65880  0.21610  1.0000
  C   C10       1.0  0.40050  0.34390  0.29310  1.0000
  O   O17       1.0  0.40210  0.69600  0.46210  1.0000
  C   C11       1.0  0.33485  0.71390  0.40550  1.0000
  O   O18       1.0  0.33585  0.28730  0.05360  1.0000
  C   C12       1.0  0.34740  0.55080  0.14780  1.0000
  H   H5        1.0  0.33405  0.58360  0.07400  1.0000
  C   C13       1.0  0.35385  0.60640  0.32510  1.0000
  C   C14       1.0  0.37995  0.39650  0.18450  1.0000
  C   C15       1.0  0.40220  0.28880  0.10030  1.0000
  C   C16       1.0  0.38555  0.45150  0.36280  1.0000
  H   H6        1.0  0.39715  0.41830  0.43730  1.0000
  O   O19       1.0  0.36030  0.07060  0.33000  1.0000
  H   H7        1.0  0.36890  0.97790  0.36000  1.0000
  O   O20       1.0  0.38710  0.92090  0.17840  1.0000
  H   H8        1.0  0.38455  0.01210  0.14570  1.0000
  Mg  Mg1       1.0  0.36445  0.08193  0.62969  1.0000
  Mg  Mg2       1.0  0.39349  0.90523  0.87443  1.0000
  Mg  Mg3       1.0  0.13555  0.91807  0.37031  1.0000
  Mg  Mg4       1.0  0.10651  0.09477  0.12557  1.0000
  P   P5        1.0  0.69040  0.14046  0.84781  1.0000
  P   P6        1.0  0.56594  0.85733  0.64823  1.0000
  O   O21       1.0  0.56995  0.86440  0.52560  1.0000
  O   O22       1.0  0.73855  0.19100  0.57970  1.0000
  O   O23       1.0  0.78730  0.05820  0.79410  1.0000
  O   O24       1.0  0.96720  0.92580  0.70820  1.0000
  O   O25       1.0  0.67975  0.13680  0.97110  1.0000
  O   O26       1.0  0.51605  0.78490  0.92250  1.0000
  C   C17       1.0  0.66620  0.34120  0.78390  1.0000
  C   C18       1.0  0.59950  0.65610  0.70690  1.0000
  O   O27       1.0  0.59790  0.30400  0.53790  1.0000
  C   C19       1.0  0.66515  0.28610  0.59450  1.0000
  O   O28       1.0  0.66415  0.71270  0.94640  1.0000
  C   C20       1.0  0.65260  0.44920  0.85220  1.0000
  H   H9        1.0  0.66595  0.41640  0.92600  1.0000
  C   C21       1.0  0.64615  0.39360  0.67490  1.0000
  C   C22       1.0  0.62005  0.60350  0.81550  1.0000
  C   C23       1.0  0.59780  0.71120  0.89970  1.0000
  C   C24       1.0  0.61445  0.54850  0.63720  1.0000
  H   H10       1.0  0.60285  0.58170  0.56270  1.0000
  O   O29       1.0  0.63970  0.92940  0.67000  1.0000
  H   H11       1.0  0.63110  0.02210  0.64000  1.0000
  O   O30       1.0  0.61290  0.07910  0.82160  1.0000
  H   H12       1.0  0.61545  0.98790  0.85430  1.0000
  P   P7        1.0  0.80960  0.85954  0.15219  1.0000
  P   P8        1.0  0.93406  0.14267  0.35177  1.0000
  O   O31       1.0  0.93005  0.13560  0.47440  1.0000
  O   O32       1.0  0.76145  0.80900  0.42030  1.0000
  O   O33       1.0  0.71270  0.94180  0.20590  1.0000
  O   O34       1.0  0.53280  0.07420  0.29180  1.0000
  O   O35       1.0  0.82025  0.86320  0.02890  1.0000
  O   O36       1.0  0.98395  0.21510  0.07750  1.0000
  C   C25       1.0  0.83380  0.65880  0.21610  1.0000
  C   C26       1.0  0.90050  0.34390  0.29310  1.0000
  O   O37       1.0  0.90210  0.69600  0.46210  1.0000
  C   C27       1.0  0.83485  0.71390  0.40550  1.0000
  O   O38       1.0  0.83585  0.28730  0.05360  1.0000
  C   C28       1.0  0.84740  0.55080  0.14780  1.0000
  H   H13       1.0  0.83405  0.58360  0.07400  1.0000
  C   C29       1.0  0.85385  0.60640  0.32510  1.0000
  C   C30       1.0  0.87995  0.39650  0.18450  1.0000
  C   C31       1.0  0.90220  0.28880  0.10030  1.0000
  C   C32       1.0  0.88555  0.45150  0.36280  1.0000
  H   H14       1.0  0.89715  0.41830  0.43730  1.0000
  O   O39       1.0  0.86030  0.07060  0.33000  1.0000
  H   H15       1.0  0.86890  0.97790  0.36000  1.0000
  O   O40       1.0  0.88710  0.92090  0.17840  1.0000
  H   H16       1.0  0.88455  0.01210  0.14570  1.0000
  Mg  Mg5       1.0  0.86445  0.08193  0.62969  1.0000
  Mg  Mg6       1.0  0.89349  0.90523  0.87443  1.0000
  Mg  Mg7       1.0  0.63555  0.91807  0.37031  1.0000
  Mg  Mg8       1.0  0.60651  0.09477  0.12557  1.0000
