data_image0
_chemical_formula_structural       O2C3HC2HO2C3HO2C3HO2C3HC2HO2C3HCOC3OHCHO2C3HO2C3HC2H2C2HO2C3HO2C3HO2C3HO2C3HC4HC2HO2C3HO2C3HO2C3HO2C3HOHOHOHOHOHOHOHOHCr8
_chemical_formula_sum              "O40 C64 H32 Cr8"
_cell_length_a       15.0377
_cell_length_b       15.0377
_cell_length_c       11.9703
_cell_angle_alpha    90
_cell_angle_beta     90
_cell_angle_gamma    90

_space_group_name_H-M_alt    "P 1"
_space_group_IT_number       1

loop_
  _space_group_symop_operation_xyz
  'x, y, z'

loop_
  _atom_site_type_symbol
  _atom_site_label
  _atom_site_symmetry_multiplicity
  _atom_site_fract_x
  _atom_site_fract_y
  _atom_site_fract_z
  _atom_site_occupancy
  O   O1        1.0  0.62040  0.38110  0.60990  1.0000
  O   O2        1.0  0.59830  0.28790  0.74680  1.0000
  C   C1        1.0  0.59010  0.36110  0.70200  1.0000
  C   C2        1.0  0.53990  0.43036  0.76370  1.0000
  C   C3        1.0  0.53990  0.43036  0.88012  1.0000
  H   H1        1.0  0.56280  0.39040  0.91350  1.0000
  C   C4        1.0  0.50000  0.50000  0.29450  1.0000
  C   C5        1.0  0.50000  0.50000  0.06167  1.0000
  H   H2        1.0  0.50000  0.50000  0.36130  1.0000
  O   O3        1.0  0.37960  0.61890  0.60990  1.0000
  O   O4        1.0  0.40170  0.71210  0.74680  1.0000
  C   C6        1.0  0.40990  0.63890  0.70200  1.0000
  C   C7        1.0  0.46010  0.56964  0.76370  1.0000
  C   C8        1.0  0.46010  0.56964  0.88012  1.0000
  H   H3        1.0  0.43720  0.60960  0.91350  1.0000
  O   O5        1.0  0.38110  0.62040  0.39010  1.0000
  O   O6        1.0  0.28790  0.59830  0.25320  1.0000
  C   C9        1.0  0.36110  0.59010  0.29800  1.0000
  C   C10       1.0  0.43036  0.53990  0.23630  1.0000
  C   C11       1.0  0.43036  0.53990  0.11988  1.0000
  H   H4        1.0  0.39040  0.56280  0.08650  1.0000
  O   O7        1.0  0.61890  0.37960  0.39010  1.0000
  O   O8        1.0  0.71210  0.40170  0.25320  1.0000
  C   C12       1.0  0.63890  0.40990  0.29800  1.0000
  C   C13       1.0  0.56964  0.46010  0.23630  1.0000
  C   C14       1.0  0.56964  0.46010  0.11988  1.0000
  H   H5        1.0  0.60960  0.43720  0.08650  1.0000
  C   C15       1.0  0.50000  0.50000  0.70550  1.0000
  C   C16       1.0  0.50000  0.50000  0.93833  1.0000
  H   H6        1.0  0.50000  0.50000  0.63870  1.0000
  O   O9        1.0  0.12040  0.88110  0.10990  1.0000
  O   O10       1.0  0.09830  0.78790  0.24680  1.0000
  C   C17       1.0  0.09010  0.86110  0.20200  1.0000
  C   C18       1.0  0.03990  0.93036  0.26370  1.0000
  C   C19       1.0  0.03990  0.93036  0.38012  1.0000
  H   H7        1.0  0.06280  0.89040  0.41350  1.0000
  C   C20       1.0  0.00000  0.00000  0.56167  1.0000
  O   O11       1.0  0.87960  0.11890  0.10990  1.0000
  C   C21       1.0  0.90990  0.13890  0.20200  1.0000
  C   C22       1.0  0.96010  0.06964  0.26370  1.0000
  C   C23       1.0  0.96010  0.06964  0.38012  1.0000
  O   O12       1.0  0.90170  0.21210  0.24680  1.0000
  H   H8        1.0  0.93720  0.10960  0.41350  1.0000
  C   C24       1.0  0.00000  0.00000  0.79450  1.0000
  H   H9        1.0  0.00000  0.00000  0.86130  1.0000
  O   O13       1.0  0.88110  0.12040  0.89010  1.0000
  O   O14       1.0  0.78790  0.09830  0.75320  1.0000
  C   C25       1.0  0.86110  0.09010  0.79800  1.0000
  C   C26       1.0  0.93036  0.03990  0.73630  1.0000
  C   C27       1.0  0.93036  0.03990  0.61988  1.0000
  H   H10       1.0  0.89040  0.06280  0.58650  1.0000
  O   O15       1.0  0.11890  0.87960  0.89010  1.0000
  O   O16       1.0  0.21210  0.90170  0.75320  1.0000
  C   C28       1.0  0.13890  0.90990  0.79800  1.0000
  C   C29       1.0  0.06964  0.96010  0.73630  1.0000
  C   C30       1.0  0.06964  0.96010  0.61988  1.0000
  H   H11       1.0  0.10960  0.93720  0.58650  1.0000
  C   C31       1.0  0.00000  0.00000  0.20550  1.0000
  C   C32       1.0  0.00000  0.00000  0.43833  1.0000
  H   H12       1.0  0.00000  0.00000  0.13870  1.0000
  H   H13       1.0  0.50000  0.00000  0.88870  1.0000
  C   C33       1.0  0.50000  0.00000  0.54450  1.0000
  C   C34       1.0  0.50000  0.00000  0.31167  1.0000
  H   H14       1.0  0.50000  0.00000  0.61130  1.0000
  O   O17       1.0  0.61890  0.12040  0.85990  1.0000
  O   O18       1.0  0.71210  0.09830  0.99680  1.0000
  C   C35       1.0  0.63890  0.09010  0.95200  1.0000
  C   C36       1.0  0.56964  0.03990  0.01370  1.0000
  C   C37       1.0  0.56964  0.03990  0.13012  1.0000
  H   H15       1.0  0.60960  0.06280  0.16350  1.0000
  O   O19       1.0  0.38110  0.87960  0.85990  1.0000
  O   O20       1.0  0.28790  0.90170  0.99680  1.0000
  C   C38       1.0  0.36110  0.90990  0.95200  1.0000
  C   C39       1.0  0.43036  0.96010  0.01370  1.0000
  C   C40       1.0  0.43036  0.96010  0.13012  1.0000
  H   H16       1.0  0.39040  0.93720  0.16350  1.0000
  O   O21       1.0  0.37960  0.88110  0.64010  1.0000
  O   O22       1.0  0.40170  0.78790  0.50320  1.0000
  C   C41       1.0  0.40990  0.86110  0.54800  1.0000
  C   C42       1.0  0.46010  0.93036  0.48630  1.0000
  C   C43       1.0  0.46010  0.93036  0.36988  1.0000
  H   H17       1.0  0.43720  0.89040  0.33650  1.0000
  O   O23       1.0  0.62040  0.11890  0.64010  1.0000
  O   O24       1.0  0.59830  0.21210  0.50320  1.0000
  C   C44       1.0  0.59010  0.13890  0.54800  1.0000
  C   C45       1.0  0.53990  0.06964  0.48630  1.0000
  C   C46       1.0  0.53990  0.06964  0.36988  1.0000
  H   H18       1.0  0.56280  0.10960  0.33650  1.0000
  C   C47       1.0  0.50000  0.00000  0.95550  1.0000
  C   C48       1.0  0.50000  0.00000  0.18833  1.0000
  C   C49       1.0  0.00000  0.50000  0.45550  1.0000
  C   C50       1.0  0.00000  0.50000  0.68833  1.0000
  H   H19       1.0  0.00000  0.50000  0.38870  1.0000
  C   C51       1.0  0.00000  0.50000  0.04450  1.0000
  C   C52       1.0  0.00000  0.50000  0.81167  1.0000
  H   H20       1.0  0.00000  0.50000  0.11130  1.0000
  O   O25       1.0  0.11890  0.62040  0.35990  1.0000
  O   O26       1.0  0.21210  0.59830  0.49680  1.0000
  C   C53       1.0  0.13890  0.59010  0.45200  1.0000
  C   C54       1.0  0.06964  0.53990  0.51370  1.0000
  C   C55       1.0  0.06964  0.53990  0.63012  1.0000
  H   H21       1.0  0.10960  0.56280  0.66350  1.0000
  O   O27       1.0  0.88110  0.37960  0.35990  1.0000
  O   O28       1.0  0.78790  0.40170  0.49680  1.0000
  C   C56       1.0  0.86110  0.40990  0.45200  1.0000
  C   C57       1.0  0.93036  0.46010  0.51370  1.0000
  C   C58       1.0  0.93036  0.46010  0.63012  1.0000
  H   H22       1.0  0.89040  0.43720  0.66350  1.0000
  O   O29       1.0  0.87960  0.38110  0.14010  1.0000
  O   O30       1.0  0.90170  0.28790  0.00320  1.0000
  C   C59       1.0  0.90990  0.36110  0.04800  1.0000
  C   C60       1.0  0.96010  0.43036  0.98630  1.0000
  C   C61       1.0  0.96010  0.43036  0.86988  1.0000
  H   H23       1.0  0.93720  0.39040  0.83650  1.0000
  O   O31       1.0  0.12040  0.61890  0.14010  1.0000
  O   O32       1.0  0.09830  0.71210  0.00320  1.0000
  C   C62       1.0  0.09010  0.63890  0.04800  1.0000
  C   C63       1.0  0.03990  0.56964  0.98630  1.0000
  C   C64       1.0  0.03990  0.56964  0.86988  1.0000
  H   H24       1.0  0.06280  0.60960  0.83650  1.0000
  O   O33       1.0  0.75070  0.25000  0.62500  1.0000
  H   H25       1.0  0.81100  0.25000  0.62500  1.0000
  O   O34       1.0  0.25070  0.75000  0.12500  1.0000
  H   H26       1.0  0.31100  0.75000  0.12500  1.0000
  O   O35       1.0  0.74930  0.25000  0.12500  1.0000
  H   H27       1.0  0.68900  0.25000  0.12500  1.0000
  O   O36       1.0  0.24930  0.75000  0.62500  1.0000
  H   H28       1.0  0.18900  0.75000  0.62500  1.0000
  O   O37       1.0  0.75000  0.25070  0.87500  1.0000
  H   H29       1.0  0.75000  0.31100  0.87500  1.0000
  O   O38       1.0  0.25000  0.75070  0.37500  1.0000
  H   H30       1.0  0.25000  0.81100  0.37500  1.0000
  O   O39       1.0  0.75000  0.24930  0.37500  1.0000
  H   H31       1.0  0.75000  0.18900  0.37500  1.0000
  O   O40       1.0  0.25000  0.74930  0.87500  1.0000
  H   H32       1.0  0.25000  0.68900  0.87500  1.0000
  Cr  Cr1       1.0  0.69168  0.30832  0.50000  1.0000
  Cr  Cr2       1.0  0.19168  0.80832  0.00000  1.0000
  Cr  Cr3       1.0  0.80832  0.19168  0.00000  1.0000
  Cr  Cr4       1.0  0.30832  0.69168  0.50000  1.0000
  Cr  Cr5       1.0  0.69168  0.19168  0.75000  1.0000
  Cr  Cr6       1.0  0.19168  0.69168  0.25000  1.0000
  Cr  Cr7       1.0  0.80832  0.30832  0.25000  1.0000
  Cr  Cr8       1.0  0.30832  0.80832  0.75000  1.0000
