data_image0
_chemical_formula_structural       N2CHCHC2HCHCHCHC2HCHCHCHN2CHCHC2HCHCHCHC2HCHCHCHPO3HC2HCHPO3HC2HCHCuN2CHCHC2HCHCHCHC2HCHCHCHN2CHCHC2HCHCHCHC2HCHCHCHPO3HC2HCHPO3HC2HCHCu
_chemical_formula_sum              "N8 C60 H52 P4 O12 Cu2"
_cell_length_a       12.3604
_cell_length_b       9.9806
_cell_length_c       13.1695
_cell_angle_alpha    101.774
_cell_angle_beta     99.888
_cell_angle_gamma    95.015

_space_group_name_H-M_alt    "P 1"
_space_group_IT_number       1

loop_
  _space_group_symop_operation_xyz
  'x, y, z'

loop_
  _atom_site_type_symbol
  _atom_site_label
  _atom_site_symmetry_multiplicity
  _atom_site_fract_x
  _atom_site_fract_y
  _atom_site_fract_z
  _atom_site_occupancy
  N   N1        1.0  0.20120  0.83290  0.38102  1.0000
  N   N2        1.0  0.02410  0.02124  0.84942  1.0000
  C   C1        1.0  0.27275  0.74710  0.34784  1.0000
  H   H1        1.0  0.34860  0.76780  0.38120  1.0000
  C   C2        1.0  0.24040  0.63050  0.26725  1.0000
  H   H2        1.0  0.29325  0.57220  0.24660  1.0000
  C   C3        1.0  0.12935  0.59890  0.21637  1.0000
  C   C4        1.0  0.05620  0.68740  0.25298  1.0000
  H   H3        1.0  0.47965  0.66870  0.22190  1.0000
  C   C5        1.0  0.09420  0.80150  0.33364  1.0000
  H   H4        1.0  0.04275  0.86040  0.35680  1.0000
  C   C6        1.0  0.08695  0.47830  0.13033  1.0000
  H   H5        1.0  0.00890  0.45950  0.10730  1.0000
  C   C7        1.0  0.14795  0.39250  0.08126  1.0000
  H   H6        1.0  0.22615  0.41480  0.09960  1.0000
  C   C8        1.0  0.10305  0.26580  0.00082  1.0000
  C   C9        1.0  0.17025  0.20000  0.93720  1.0000
  H   H7        1.0  0.24510  0.23820  0.94480  1.0000
  C   C10       1.0  0.12875  0.07920  0.86301  1.0000
  H   H8        1.0  0.17605  0.03600  0.82030  1.0000
  C   C11       1.0  0.45830  0.08420  0.90992  1.0000
  H   H9        1.0  0.38360  0.04400  0.89980  1.0000
  C   C12       1.0  0.49365  0.20440  0.98617  1.0000
  H   H10       1.0  0.44450  0.24470  0.02810  1.0000
  N   N3        1.0  0.29880  0.16710  0.61898  1.0000
  N   N4        1.0  0.47590  0.97876  0.15058  1.0000
  C   C13       1.0  0.22725  0.25290  0.65216  1.0000
  H   H11       1.0  0.15140  0.23220  0.61880  1.0000
  C   C14       1.0  0.25960  0.36950  0.73275  1.0000
  H   H12       1.0  0.20675  0.42780  0.75340  1.0000
  C   C15       1.0  0.37065  0.40110  0.78363  1.0000
  C   C16       1.0  0.44380  0.31260  0.74702  1.0000
  H   H13       1.0  0.02035  0.33130  0.77810  1.0000
  C   C17       1.0  0.40580  0.19850  0.66636  1.0000
  H   H14       1.0  0.45725  0.13960  0.64320  1.0000
  C   C18       1.0  0.41305  0.52170  0.86967  1.0000
  H   H15       1.0  0.49110  0.54050  0.89270  1.0000
  C   C19       1.0  0.35205  0.60750  0.91874  1.0000
  H   H16       1.0  0.27385  0.58520  0.90040  1.0000
  C   C20       1.0  0.39695  0.73420  0.99918  1.0000
  C   C21       1.0  0.32975  0.80000  0.06280  1.0000
  H   H17       1.0  0.25490  0.76180  0.05520  1.0000
  C   C22       1.0  0.37125  0.92080  0.13699  1.0000
  H   H18       1.0  0.32395  0.96400  0.17970  1.0000
  C   C23       1.0  0.04170  0.91580  0.09008  1.0000
  H   H19       1.0  0.11640  0.95600  0.10020  1.0000
  C   C24       1.0  0.00635  0.79560  0.01383  1.0000
  H   H20       1.0  0.05550  0.75530  0.97190  1.0000
  P   P1        1.0  0.32423  0.80109  0.65080  1.0000
  O   O1        1.0  0.34860  0.89563  0.57790  1.0000
  O   O2        1.0  0.23675  0.84186  0.71276  1.0000
  O   O3        1.0  0.43620  0.79064  0.72248  1.0000
  H   H21       1.0  0.46075  0.86790  0.76280  1.0000
  C   C25       1.0  0.28375  0.62900  0.57008  1.0000
  C   C26       1.0  0.36110  0.53990  0.54544  1.0000
  H   H22       1.0  0.43730  0.56670  0.57620  1.0000
  C   C27       1.0  0.32745  0.41250  0.47640  1.0000
  H   H23       1.0  0.38090  0.35260  0.46050  1.0000
  P   P2        1.0  0.17577  0.19891  0.34920  1.0000
  O   O4        1.0  0.15140  0.10437  0.42210  1.0000
  O   O5        1.0  0.26325  0.15814  0.28724  1.0000
  O   O6        1.0  0.06380  0.20936  0.27752  1.0000
  H   H24       1.0  0.03925  0.13210  0.23720  1.0000
  C   C28       1.0  0.21625  0.37100  0.42992  1.0000
  C   C29       1.0  0.13890  0.46010  0.45456  1.0000
  H   H25       1.0  0.06270  0.43330  0.42380  1.0000
  C   C30       1.0  0.17255  0.58750  0.52360  1.0000
  H   H26       1.0  0.11910  0.64740  0.53950  1.0000
  Cu  Cu1       1.0  0.25000  0.00000  0.50000  1.0000
  N   N5        1.0  0.70120  0.83290  0.38102  1.0000
  N   N6        1.0  0.52410  0.02124  0.84942  1.0000
  C   C31       1.0  0.77275  0.74710  0.34784  1.0000
  H   H27       1.0  0.84860  0.76780  0.38120  1.0000
  C   C32       1.0  0.74040  0.63050  0.26725  1.0000
  H   H28       1.0  0.79325  0.57220  0.24660  1.0000
  C   C33       1.0  0.62935  0.59890  0.21637  1.0000
  C   C34       1.0  0.55620  0.68740  0.25298  1.0000
  H   H29       1.0  0.97965  0.66870  0.22190  1.0000
  C   C35       1.0  0.59420  0.80150  0.33364  1.0000
  H   H30       1.0  0.54275  0.86040  0.35680  1.0000
  C   C36       1.0  0.58695  0.47830  0.13033  1.0000
  H   H31       1.0  0.50890  0.45950  0.10730  1.0000
  C   C37       1.0  0.64795  0.39250  0.08126  1.0000
  H   H32       1.0  0.72615  0.41480  0.09960  1.0000
  C   C38       1.0  0.60305  0.26580  0.00082  1.0000
  C   C39       1.0  0.67025  0.20000  0.93720  1.0000
  H   H33       1.0  0.74510  0.23820  0.94480  1.0000
  C   C40       1.0  0.62875  0.07920  0.86301  1.0000
  H   H34       1.0  0.67605  0.03600  0.82030  1.0000
  C   C41       1.0  0.95830  0.08420  0.90992  1.0000
  H   H35       1.0  0.88360  0.04400  0.89980  1.0000
  C   C42       1.0  0.99365  0.20440  0.98617  1.0000
  H   H36       1.0  0.94450  0.24470  0.02810  1.0000
  N   N7        1.0  0.79880  0.16710  0.61898  1.0000
  N   N8        1.0  0.97590  0.97876  0.15058  1.0000
  C   C43       1.0  0.72725  0.25290  0.65216  1.0000
  H   H37       1.0  0.65140  0.23220  0.61880  1.0000
  C   C44       1.0  0.75960  0.36950  0.73275  1.0000
  H   H38       1.0  0.70675  0.42780  0.75340  1.0000
  C   C45       1.0  0.87065  0.40110  0.78363  1.0000
  C   C46       1.0  0.94380  0.31260  0.74702  1.0000
  H   H39       1.0  0.52035  0.33130  0.77810  1.0000
  C   C47       1.0  0.90580  0.19850  0.66636  1.0000
  H   H40       1.0  0.95725  0.13960  0.64320  1.0000
  C   C48       1.0  0.91305  0.52170  0.86967  1.0000
  H   H41       1.0  0.99110  0.54050  0.89270  1.0000
  C   C49       1.0  0.85205  0.60750  0.91874  1.0000
  H   H42       1.0  0.77385  0.58520  0.90040  1.0000
  C   C50       1.0  0.89695  0.73420  0.99918  1.0000
  C   C51       1.0  0.82975  0.80000  0.06280  1.0000
  H   H43       1.0  0.75490  0.76180  0.05520  1.0000
  C   C52       1.0  0.87125  0.92080  0.13699  1.0000
  H   H44       1.0  0.82395  0.96400  0.17970  1.0000
  C   C53       1.0  0.54170  0.91580  0.09008  1.0000
  H   H45       1.0  0.61640  0.95600  0.10020  1.0000
  C   C54       1.0  0.50635  0.79560  0.01383  1.0000
  H   H46       1.0  0.55550  0.75530  0.97190  1.0000
  P   P3        1.0  0.82424  0.80109  0.65080  1.0000
  O   O7        1.0  0.84860  0.89563  0.57790  1.0000
  O   O8        1.0  0.73675  0.84186  0.71276  1.0000
  O   O9        1.0  0.93620  0.79064  0.72248  1.0000
  H   H47       1.0  0.96075  0.86790  0.76280  1.0000
  C   C55       1.0  0.78375  0.62900  0.57008  1.0000
  C   C56       1.0  0.86110  0.53990  0.54544  1.0000
  H   H48       1.0  0.93730  0.56670  0.57620  1.0000
  C   C57       1.0  0.82745  0.41250  0.47640  1.0000
  H   H49       1.0  0.88090  0.35260  0.46050  1.0000
  P   P4        1.0  0.67576  0.19891  0.34920  1.0000
  O   O10       1.0  0.65140  0.10437  0.42210  1.0000
  O   O11       1.0  0.76325  0.15814  0.28724  1.0000
  O   O12       1.0  0.56380  0.20936  0.27752  1.0000
  H   H50       1.0  0.53925  0.13210  0.23720  1.0000
  C   C58       1.0  0.71625  0.37100  0.42992  1.0000
  C   C59       1.0  0.63890  0.46010  0.45456  1.0000
  H   H51       1.0  0.56270  0.43330  0.42380  1.0000
  C   C60       1.0  0.67255  0.58750  0.52360  1.0000
  H   H52       1.0  0.61910  0.64740  0.53950  1.0000
  Cu  Cu2       1.0  0.75000  0.00000  0.50000  1.0000
