data_image0
_chemical_formula_structural       C3HC3HCHC3HC3HCHO11HS2C3HC3HCHC3HC3HCHO11HS2C3HC3HCHC3HC3HCHO11HS2O11HS2C3HC3HCHC3HC3HCHC3HC3HCHC3HC3HCHO11HS2C3HC3HCHC3HC3HCHO11HS2C3HC3HCHC3HC3HCHO11HS2C3HCHC3HC3HCHO11HS2C3HO6Zr4O2Zr8O8
_chemical_formula_sum              "C112 H56 O104 S16 Zr12"
_cell_length_a       20.4353
_cell_length_b       28.7511
_cell_length_c       16.3952
_cell_angle_alpha    90
_cell_angle_beta     109.87
_cell_angle_gamma    90

_space_group_name_H-M_alt    "P 1"
_space_group_IT_number       1

loop_
  _space_group_symop_operation_xyz
  'x, y, z'

loop_
  _atom_site_type_symbol
  _atom_site_label
  _atom_site_symmetry_multiplicity
  _atom_site_fract_x
  _atom_site_fract_y
  _atom_site_fract_z
  _atom_site_occupancy
  C   C1        1.0  0.64520  0.61148  0.64060  1.0000
  C   C2        1.0  0.69460  0.64930  0.68620  1.0000
  C   C3        1.0  0.75490  0.63815  0.75250  1.0000
  H   H1        1.0  0.76405  0.60657  0.76957  1.0000
  C   C4        1.0  0.80280  0.67225  0.79500  1.0000
  C   C5        1.0  0.78790  0.71748  0.77070  1.0000
  C   C6        1.0  0.72900  0.72899  0.70700  1.0000
  H   H2        1.0  0.71977  0.76069  0.69077  1.0000
  C   C7        1.0  0.68100  0.69498  0.66420  1.0000
  H   H3        1.0  0.63902  0.70355  0.61985  1.0000
  C   C8        1.0  0.92820  0.88823  0.63910  1.0000
  C   C9        1.0  0.90200  0.85169  0.68330  1.0000
  C   C10       1.0  0.87200  0.86397  0.74290  1.0000
  H   H4        1.0  0.86781  0.89605  0.75409  1.0000
  C   C11       1.0  0.84720  0.83125  0.78790  1.0000
  C   C12       1.0  0.85420  0.78462  0.76880  1.0000
  C   C13       1.0  0.88310  0.77233  0.71040  1.0000
  H   H5        1.0  0.88764  0.74033  0.69888  1.0000
  C   C14       1.0  0.90650  0.80560  0.66680  1.0000
  H   H6        1.0  0.92602  0.79632  0.62447  1.0000
  O   O1        1.0  0.83450  0.75140  0.81690  1.0000
  O   O2        1.0  0.58842  0.62477  0.58630  1.0000
  O   O3        1.0  0.95679  0.87503  0.58520  1.0000
  O   O4        1.0  0.92085  0.93003  0.65760  1.0000
  O   O5        1.0  0.66331  0.57066  0.66050  1.0000
  O   O6        1.0  0.88070  0.60547  0.87710  1.0000
  O   O7        1.0  0.88280  0.67775  0.95590  1.0000
  O   O8        1.0  0.93770  0.67362  0.84870  1.0000
  O   O9        1.0  0.80300  0.89899  0.85440  1.0000
  O   O10       1.0  0.84930  0.83151  0.94510  1.0000
  O   O11       1.0  0.73755  0.82835  0.83110  1.0000
  H   H7        1.0  0.74100  0.79960  0.82439  1.0000
  S   S1        1.0  0.88266  0.65532  0.87604  1.0000
  S   S2        1.0  0.80610  0.84891  0.86156  1.0000
  C   C15       1.0  0.14520  0.11148  0.64060  1.0000
  C   C16       1.0  0.19460  0.14930  0.68620  1.0000
  C   C17       1.0  0.25490  0.13815  0.75250  1.0000
  H   H8        1.0  0.26405  0.10657  0.76957  1.0000
  C   C18       1.0  0.30280  0.17225  0.79500  1.0000
  C   C19       1.0  0.28790  0.21748  0.77070  1.0000
  C   C20       1.0  0.22900  0.22899  0.70700  1.0000
  H   H9        1.0  0.21977  0.26069  0.69077  1.0000
  C   C21       1.0  0.18100  0.19498  0.66420  1.0000
  H   H10       1.0  0.13902  0.20355  0.61985  1.0000
  C   C22       1.0  0.42820  0.38823  0.63910  1.0000
  C   C23       1.0  0.40200  0.35169  0.68330  1.0000
  C   C24       1.0  0.37200  0.36397  0.74290  1.0000
  H   H11       1.0  0.36781  0.39605  0.75409  1.0000
  C   C25       1.0  0.34720  0.33125  0.78790  1.0000
  C   C26       1.0  0.35420  0.28462  0.76880  1.0000
  C   C27       1.0  0.38310  0.27233  0.71040  1.0000
  H   H12       1.0  0.38764  0.24033  0.69888  1.0000
  C   C28       1.0  0.40650  0.30560  0.66680  1.0000
  H   H13       1.0  0.42603  0.29632  0.62447  1.0000
  O   O12       1.0  0.33450  0.25140  0.81690  1.0000
  O   O13       1.0  0.08842  0.12477  0.58630  1.0000
  O   O14       1.0  0.45679  0.37503  0.58520  1.0000
  O   O15       1.0  0.42085  0.43003  0.65760  1.0000
  O   O16       1.0  0.16331  0.07066  0.66050  1.0000
  O   O17       1.0  0.38070  0.10547  0.87710  1.0000
  O   O18       1.0  0.38280  0.17775  0.95590  1.0000
  O   O19       1.0  0.43770  0.17362  0.84870  1.0000
  O   O20       1.0  0.30300  0.39899  0.85440  1.0000
  O   O21       1.0  0.34930  0.33151  0.94510  1.0000
  O   O22       1.0  0.23755  0.32835  0.83110  1.0000
  H   H14       1.0  0.24100  0.29960  0.82439  1.0000
  S   S3        1.0  0.38266  0.15532  0.87604  1.0000
  S   S4        1.0  0.30610  0.34891  0.86156  1.0000
  C   C29       1.0  0.35480  0.61148  0.35940  1.0000
  C   C30       1.0  0.30540  0.64930  0.31380  1.0000
  C   C31       1.0  0.24510  0.63815  0.24750  1.0000
  H   H15       1.0  0.23595  0.60657  0.23043  1.0000
  C   C32       1.0  0.19720  0.67225  0.20500  1.0000
  C   C33       1.0  0.21210  0.71748  0.22930  1.0000
  C   C34       1.0  0.27100  0.72899  0.29300  1.0000
  H   H16       1.0  0.28023  0.76069  0.30923  1.0000
  C   C35       1.0  0.31900  0.69498  0.33580  1.0000
  H   H17       1.0  0.36098  0.70355  0.38015  1.0000
  C   C36       1.0  0.07180  0.88823  0.36090  1.0000
  C   C37       1.0  0.09800  0.85169  0.31670  1.0000
  C   C38       1.0  0.12800  0.86397  0.25710  1.0000
  H   H18       1.0  0.13219  0.89605  0.24591  1.0000
  C   C39       1.0  0.15280  0.83125  0.21210  1.0000
  C   C40       1.0  0.14580  0.78462  0.23120  1.0000
  C   C41       1.0  0.11690  0.77233  0.28960  1.0000
  H   H19       1.0  0.11236  0.74033  0.30112  1.0000
  C   C42       1.0  0.09350  0.80560  0.33320  1.0000
  H   H20       1.0  0.07398  0.79632  0.37553  1.0000
  O   O23       1.0  0.16550  0.75140  0.18310  1.0000
  O   O24       1.0  0.41158  0.62477  0.41370  1.0000
  O   O25       1.0  0.04321  0.87503  0.41480  1.0000
  O   O26       1.0  0.07915  0.93003  0.34240  1.0000
  O   O27       1.0  0.33669  0.57066  0.33950  1.0000
  O   O28       1.0  0.11930  0.60547  0.12290  1.0000
  O   O29       1.0  0.11720  0.67775  0.04410  1.0000
  O   O30       1.0  0.06230  0.67362  0.15130  1.0000
  O   O31       1.0  0.19700  0.89899  0.14560  1.0000
  O   O32       1.0  0.15070  0.83151  0.05490  1.0000
  O   O33       1.0  0.26245  0.82835  0.16890  1.0000
  H   H21       1.0  0.25900  0.79960  0.17561  1.0000
  S   S5        1.0  0.11734  0.65532  0.12396  1.0000
  S   S6        1.0  0.19390  0.84891  0.13844  1.0000
  O   O34       1.0  0.66550  0.25140  0.18310  1.0000
  O   O35       1.0  0.91158  0.12477  0.41370  1.0000
  O   O36       1.0  0.54321  0.37503  0.41480  1.0000
  O   O37       1.0  0.57915  0.43003  0.34240  1.0000
  O   O38       1.0  0.83669  0.07066  0.33950  1.0000
  O   O39       1.0  0.61930  0.10547  0.12290  1.0000
  O   O40       1.0  0.61720  0.17775  0.04410  1.0000
  O   O41       1.0  0.56230  0.17362  0.15130  1.0000
  O   O42       1.0  0.69700  0.39899  0.14560  1.0000
  O   O43       1.0  0.65070  0.33151  0.05490  1.0000
  O   O44       1.0  0.76245  0.32835  0.16890  1.0000
  H   H22       1.0  0.75900  0.29960  0.17561  1.0000
  S   S7        1.0  0.61734  0.15532  0.12396  1.0000
  S   S8        1.0  0.69390  0.34891  0.13844  1.0000
  C   C43       1.0  0.85480  0.11148  0.35940  1.0000
  C   C44       1.0  0.80540  0.14930  0.31380  1.0000
  C   C45       1.0  0.74510  0.13815  0.24750  1.0000
  H   H23       1.0  0.73595  0.10657  0.23043  1.0000
  C   C46       1.0  0.69720  0.17225  0.20500  1.0000
  C   C47       1.0  0.71210  0.21748  0.22930  1.0000
  C   C48       1.0  0.77100  0.22899  0.29300  1.0000
  H   H24       1.0  0.78023  0.26069  0.30923  1.0000
  C   C49       1.0  0.81900  0.19498  0.33580  1.0000
  H   H25       1.0  0.86098  0.20355  0.38015  1.0000
  C   C50       1.0  0.57180  0.38823  0.36090  1.0000
  C   C51       1.0  0.59800  0.35169  0.31670  1.0000
  C   C52       1.0  0.62800  0.36397  0.25710  1.0000
  H   H26       1.0  0.63219  0.39605  0.24591  1.0000
  C   C53       1.0  0.65280  0.33125  0.21210  1.0000
  C   C54       1.0  0.64580  0.28462  0.23120  1.0000
  C   C55       1.0  0.61690  0.27233  0.28960  1.0000
  H   H27       1.0  0.61236  0.24033  0.30112  1.0000
  C   C56       1.0  0.59350  0.30560  0.33320  1.0000
  H   H28       1.0  0.57398  0.29632  0.37553  1.0000
  C   C57       1.0  0.35480  0.38852  0.35940  1.0000
  C   C58       1.0  0.30540  0.35070  0.31380  1.0000
  C   C59       1.0  0.24510  0.36185  0.24750  1.0000
  H   H29       1.0  0.23595  0.39343  0.23043  1.0000
  C   C60       1.0  0.19720  0.32775  0.20500  1.0000
  C   C61       1.0  0.21210  0.28252  0.22930  1.0000
  C   C62       1.0  0.27100  0.27101  0.29300  1.0000
  H   H30       1.0  0.28023  0.23931  0.30923  1.0000
  C   C63       1.0  0.31900  0.30502  0.33580  1.0000
  H   H31       1.0  0.36098  0.29645  0.38015  1.0000
  C   C64       1.0  0.07180  0.11177  0.36090  1.0000
  C   C65       1.0  0.09800  0.14831  0.31670  1.0000
  C   C66       1.0  0.12800  0.13603  0.25710  1.0000
  H   H32       1.0  0.13219  0.10395  0.24591  1.0000
  C   C67       1.0  0.15280  0.16875  0.21210  1.0000
  C   C68       1.0  0.14580  0.21538  0.23120  1.0000
  C   C69       1.0  0.11690  0.22767  0.28960  1.0000
  H   H33       1.0  0.11236  0.25967  0.30112  1.0000
  C   C70       1.0  0.09350  0.19440  0.33320  1.0000
  H   H34       1.0  0.07398  0.20368  0.37553  1.0000
  O   O45       1.0  0.16550  0.24860  0.18310  1.0000
  O   O46       1.0  0.41158  0.37523  0.41370  1.0000
  O   O47       1.0  0.04321  0.12497  0.41480  1.0000
  O   O48       1.0  0.07915  0.06997  0.34240  1.0000
  O   O49       1.0  0.33669  0.42934  0.33950  1.0000
  O   O50       1.0  0.11930  0.39453  0.12290  1.0000
  O   O51       1.0  0.11720  0.32225  0.04410  1.0000
  O   O52       1.0  0.06230  0.32638  0.15130  1.0000
  O   O53       1.0  0.19700  0.10101  0.14560  1.0000
  O   O54       1.0  0.15070  0.16849  0.05490  1.0000
  O   O55       1.0  0.26245  0.17165  0.16890  1.0000
  H   H35       1.0  0.25900  0.20040  0.17561  1.0000
  S   S9        1.0  0.11734  0.34468  0.12396  1.0000
  S   S10       1.0  0.19390  0.15109  0.13844  1.0000
  C   C71       1.0  0.85480  0.88852  0.35940  1.0000
  C   C72       1.0  0.80540  0.85070  0.31380  1.0000
  C   C73       1.0  0.74510  0.86185  0.24750  1.0000
  H   H36       1.0  0.73595  0.89343  0.23043  1.0000
  C   C74       1.0  0.69720  0.82775  0.20500  1.0000
  C   C75       1.0  0.71210  0.78252  0.22930  1.0000
  C   C76       1.0  0.77100  0.77101  0.29300  1.0000
  H   H37       1.0  0.78023  0.73931  0.30923  1.0000
  C   C77       1.0  0.81900  0.80502  0.33580  1.0000
  H   H38       1.0  0.86098  0.79645  0.38015  1.0000
  C   C78       1.0  0.57180  0.61177  0.36090  1.0000
  C   C79       1.0  0.59800  0.64831  0.31670  1.0000
  C   C80       1.0  0.62800  0.63603  0.25710  1.0000
  H   H39       1.0  0.63219  0.60395  0.24591  1.0000
  C   C81       1.0  0.65280  0.66875  0.21210  1.0000
  C   C82       1.0  0.64580  0.71538  0.23120  1.0000
  C   C83       1.0  0.61690  0.72767  0.28960  1.0000
  H   H40       1.0  0.61236  0.75967  0.30112  1.0000
  C   C84       1.0  0.59350  0.69440  0.33320  1.0000
  H   H41       1.0  0.57398  0.70368  0.37553  1.0000
  O   O56       1.0  0.66550  0.74860  0.18310  1.0000
  O   O57       1.0  0.91158  0.87523  0.41370  1.0000
  O   O58       1.0  0.54321  0.62497  0.41480  1.0000
  O   O59       1.0  0.57915  0.56997  0.34240  1.0000
  O   O60       1.0  0.83669  0.92934  0.33950  1.0000
  O   O61       1.0  0.61930  0.89453  0.12290  1.0000
  O   O62       1.0  0.61720  0.82225  0.04410  1.0000
  O   O63       1.0  0.56230  0.82638  0.15130  1.0000
  O   O64       1.0  0.69700  0.60101  0.14560  1.0000
  O   O65       1.0  0.65070  0.66849  0.05490  1.0000
  O   O66       1.0  0.76245  0.67165  0.16890  1.0000
  H   H42       1.0  0.75900  0.70040  0.17561  1.0000
  S   S11       1.0  0.61734  0.84468  0.12396  1.0000
  S   S12       1.0  0.69390  0.65109  0.13844  1.0000
  C   C85       1.0  0.64520  0.38852  0.64060  1.0000
  C   C86       1.0  0.69460  0.35070  0.68620  1.0000
  C   C87       1.0  0.75490  0.36185  0.75250  1.0000
  H   H43       1.0  0.76405  0.39343  0.76957  1.0000
  C   C88       1.0  0.80280  0.32775  0.79500  1.0000
  C   C89       1.0  0.78790  0.28252  0.77070  1.0000
  C   C90       1.0  0.72900  0.27101  0.70700  1.0000
  H   H44       1.0  0.71977  0.23931  0.69077  1.0000
  C   C91       1.0  0.68100  0.30502  0.66420  1.0000
  H   H45       1.0  0.63902  0.29645  0.61985  1.0000
  C   C92       1.0  0.92820  0.11177  0.63910  1.0000
  C   C93       1.0  0.90200  0.14831  0.68330  1.0000
  C   C94       1.0  0.87200  0.13603  0.74290  1.0000
  H   H46       1.0  0.86781  0.10395  0.75409  1.0000
  C   C95       1.0  0.84720  0.16875  0.78790  1.0000
  C   C96       1.0  0.85420  0.21538  0.76880  1.0000
  C   C97       1.0  0.88310  0.22767  0.71040  1.0000
  H   H47       1.0  0.88764  0.25967  0.69888  1.0000
  C   C98       1.0  0.90650  0.19440  0.66680  1.0000
  H   H48       1.0  0.92602  0.20368  0.62447  1.0000
  O   O67       1.0  0.83450  0.24860  0.81690  1.0000
  O   O68       1.0  0.58842  0.37523  0.58630  1.0000
  O   O69       1.0  0.95679  0.12497  0.58520  1.0000
  O   O70       1.0  0.92085  0.06997  0.65760  1.0000
  O   O71       1.0  0.66331  0.42934  0.66050  1.0000
  O   O72       1.0  0.88070  0.39453  0.87710  1.0000
  O   O73       1.0  0.88280  0.32225  0.95590  1.0000
  O   O74       1.0  0.93770  0.32638  0.84870  1.0000
  O   O75       1.0  0.80300  0.10101  0.85440  1.0000
  O   O76       1.0  0.84930  0.16849  0.94510  1.0000
  O   O77       1.0  0.73755  0.17165  0.83110  1.0000
  H   H49       1.0  0.74100  0.20040  0.82439  1.0000
  S   S13       1.0  0.88266  0.34468  0.87604  1.0000
  S   S14       1.0  0.80610  0.15109  0.86156  1.0000
  C   C99       1.0  0.30280  0.82775  0.79500  1.0000
  C   C100      1.0  0.28790  0.78252  0.77070  1.0000
  C   C101      1.0  0.22900  0.77101  0.70700  1.0000
  H   H50       1.0  0.21977  0.73931  0.69077  1.0000
  C   C102      1.0  0.18100  0.80502  0.66420  1.0000
  H   H51       1.0  0.13902  0.79645  0.61985  1.0000
  C   C103      1.0  0.42820  0.61177  0.63910  1.0000
  C   C104      1.0  0.40200  0.64831  0.68330  1.0000
  C   C105      1.0  0.37200  0.63603  0.74290  1.0000
  H   H52       1.0  0.36781  0.60395  0.75409  1.0000
  C   C106      1.0  0.34720  0.66875  0.78790  1.0000
  C   C107      1.0  0.35420  0.71538  0.76880  1.0000
  C   C108      1.0  0.38310  0.72767  0.71040  1.0000
  H   H53       1.0  0.38764  0.75967  0.69888  1.0000
  C   C109      1.0  0.40650  0.69440  0.66680  1.0000
  H   H54       1.0  0.42603  0.70368  0.62447  1.0000
  O   O78       1.0  0.33450  0.74860  0.81690  1.0000
  O   O79       1.0  0.08842  0.87523  0.58630  1.0000
  O   O80       1.0  0.45679  0.62497  0.58520  1.0000
  O   O81       1.0  0.42085  0.56997  0.65760  1.0000
  O   O82       1.0  0.16331  0.92934  0.66050  1.0000
  O   O83       1.0  0.38070  0.89453  0.87710  1.0000
  O   O84       1.0  0.38280  0.82225  0.95590  1.0000
  O   O85       1.0  0.43770  0.82638  0.84870  1.0000
  O   O86       1.0  0.30300  0.60101  0.85440  1.0000
  O   O87       1.0  0.34930  0.66849  0.94510  1.0000
  O   O88       1.0  0.23755  0.67165  0.83110  1.0000
  H   H55       1.0  0.24100  0.70040  0.82439  1.0000
  S   S15       1.0  0.38266  0.84468  0.87604  1.0000
  S   S16       1.0  0.30610  0.65109  0.86156  1.0000
  C   C110      1.0  0.14520  0.88852  0.64060  1.0000
  C   C111      1.0  0.19460  0.85070  0.68620  1.0000
  C   C112      1.0  0.25490  0.86185  0.75250  1.0000
  H   H56       1.0  0.26405  0.89343  0.76957  1.0000
  O   O89       1.0  0.08773  0.04187  0.50220  1.0000
  O   O90       1.0  0.03083  0.04176  0.61560  1.0000
  O   O91       1.0  0.91227  0.95813  0.49780  1.0000
  O   O92       1.0  0.96917  0.95824  0.38440  1.0000
  O   O93       1.0  0.41227  0.54187  0.49780  1.0000
  O   O94       1.0  0.46917  0.54176  0.38440  1.0000
  Zr  Zr1       1.0  0.44293  0.50000  0.61278  1.0000
  Zr  Zr2       1.0  0.38292  0.50000  0.38410  1.0000
  Zr  Zr3       1.0  0.94293  0.00000  0.61278  1.0000
  Zr  Zr4       1.0  0.88292  0.00000  0.38410  1.0000
  O   O95       1.0  0.58773  0.45813  0.50220  1.0000
  O   O96       1.0  0.53083  0.45824  0.61560  1.0000
  Zr  Zr5       1.0  0.55707  0.50000  0.38722  1.0000
  Zr  Zr6       1.0  0.61708  0.50000  0.61590  1.0000
  Zr  Zr7       1.0  0.05707  0.00000  0.38722  1.0000
  Zr  Zr8       1.0  0.11708  0.00000  0.61590  1.0000
  Zr  Zr9       1.0  0.50000  0.58539  0.50000  1.0000
  Zr  Zr10      1.0  0.00000  0.08539  0.50000  1.0000
  Zr  Zr11      1.0  0.50000  0.41461  0.50000  1.0000
  Zr  Zr12      1.0  0.00000  0.91461  0.50000  1.0000
  O   O97       1.0  0.91227  0.04187  0.49780  1.0000
  O   O98       1.0  0.96917  0.04176  0.38440  1.0000
  O   O99       1.0  0.08773  0.95813  0.50220  1.0000
  O   O100      1.0  0.03083  0.95824  0.61560  1.0000
  O   O101      1.0  0.58773  0.54187  0.50220  1.0000
  O   O102      1.0  0.53083  0.54176  0.61560  1.0000
  O   O103      1.0  0.41227  0.45813  0.49780  1.0000
  O   O104      1.0  0.46917  0.45824  0.38440  1.0000
