data_image0
_chemical_formula_structural       P3CH2CH2CH2CH2CH2CH2CH2CH2CH2N3O3HO3HO3P3CH2CH2CH2CH2CH2CH2CH2CH2CH2N3O3HO3HO3H2CH2CH2N3O3HO3HO3P3CH2CH2CH2CH2CH2CH2CP3CH2CH2CH2CH2CH2CH2CH2CH2CH2N3O3HO3HO3CoCaCoCaCoCaCoCa
_chemical_formula_sum              "P12 C36 H80 N12 O36 Co4 Ca4"
_cell_length_a       12.909
_cell_length_b       10.2381
_cell_length_c       19.484
_cell_angle_alpha    90
_cell_angle_beta     106.525
_cell_angle_gamma    90

_space_group_name_H-M_alt    "P 1"
_space_group_IT_number       1

loop_
  _space_group_symop_operation_xyz
  'x, y, z'

loop_
  _atom_site_type_symbol
  _atom_site_label
  _atom_site_symmetry_multiplicity
  _atom_site_fract_x
  _atom_site_fract_y
  _atom_site_fract_z
  _atom_site_occupancy
  P   P1        1.0  0.73030  0.49280  0.93642  1.0000
  P   P2        1.0  0.51491  0.76079  0.74999  1.0000
  P   P3        1.0  0.65709  0.94301  0.99096  1.0000
  C   C1        1.0  0.77670  0.68990  0.76930  1.0000
  H   H1        1.0  0.71070  0.64950  0.74050  1.0000
  H   H2        1.0  0.83620  0.65900  0.75240  1.0000
  C   C2        1.0  0.76800  0.83650  0.76230  1.0000
  H   H3        1.0  0.73460  0.85980  0.71260  1.0000
  H   H4        1.0  0.83960  0.87490  0.77700  1.0000
  C   C3        1.0  0.75230  0.01050  0.84720  1.0000
  H   H5        1.0  0.70130  0.05670  0.86660  1.0000
  H   H6        1.0  0.77460  0.06850  0.81470  1.0000
  C   C4        1.0  0.84990  0.96850  0.90750  1.0000
  H   H7        1.0  0.90960  0.94860  0.88810  1.0000
  H   H8        1.0  0.87210  0.03940  0.94150  1.0000
  C   C5        1.0  0.91250  0.75140  0.95860  1.0000
  H   H9        1.0  0.90340  0.68710  0.99290  1.0000
  H   H10       1.0  0.98150  0.79460  0.97830  1.0000
  C   C6        1.0  0.91090  0.68470  0.88900  1.0000
  H   H11       1.0  0.95230  0.60440  0.89910  1.0000
  H   H12       1.0  0.94420  0.74110  0.86130  1.0000
  C   C7        1.0  0.76610  0.51350  0.85350  1.0000
  H   H13       1.0  0.82680  0.45750  0.85360  1.0000
  H   H14       1.0  0.70560  0.48880  0.81320  1.0000
  C   C8        1.0  0.58680  0.91590  0.76540  1.0000
  H   H15       1.0  0.58550  0.95590  0.72010  1.0000
  H   H16       1.0  0.55230  0.97500  0.79110  1.0000
  C   C9        1.0  0.79610  0.88460  0.01230  1.0000
  H   H17       1.0  0.84500  0.95200  0.03760  1.0000
  H   H18       1.0  0.80480  0.80860  0.04310  1.0000
  N   N1        1.0  0.79560  0.65420  0.84608  1.0000
  N   N2        1.0  0.70070  0.89040  0.80838  1.0000
  N   N3        1.0  0.82300  0.84960  0.94501  1.0000
  O   O1        1.0  0.69950  0.63110  0.95325  1.0000
  O   O2        1.0  0.64680  0.39110  0.92876  1.0000
  O   O3        1.0  0.83640  0.45550  0.99634  1.0000
  H   H19       1.0  0.83170  0.38010  0.00940  1.0000
  O   O4        1.0  0.57140  0.68420  0.81726  1.0000
  O   O5        1.0  0.51680  0.69750  0.68143  1.0000
  O   O6        1.0  0.39430  0.78940  0.74588  1.0000
  H   H20       1.0  0.39140  0.82470  0.78300  1.0000
  O   O7        1.0  0.60540  0.87140  0.91975  1.0000
  O   O8        1.0  0.61100  0.90140  0.05050  1.0000
  O   O9        1.0  0.65660  0.09000  0.98083  1.0000
  P   P4        1.0  0.26970  0.99280  0.56358  1.0000
  P   P5        1.0  0.48509  0.26079  0.75001  1.0000
  P   P6        1.0  0.34291  0.44301  0.50904  1.0000
  C   C10       1.0  0.22330  0.18990  0.73070  1.0000
  H   H21       1.0  0.28930  0.14950  0.75950  1.0000
  H   H22       1.0  0.16380  0.15900  0.74760  1.0000
  C   C11       1.0  0.23200  0.33650  0.73770  1.0000
  H   H23       1.0  0.26540  0.35980  0.78740  1.0000
  H   H24       1.0  0.16040  0.37490  0.72300  1.0000
  C   C12       1.0  0.24770  0.51050  0.65280  1.0000
  H   H25       1.0  0.29870  0.55670  0.63340  1.0000
  H   H26       1.0  0.22540  0.56850  0.68530  1.0000
  C   C13       1.0  0.15010  0.46850  0.59250  1.0000
  H   H27       1.0  0.09040  0.44860  0.61190  1.0000
  H   H28       1.0  0.12790  0.53940  0.55850  1.0000
  C   C14       1.0  0.08750  0.25140  0.54140  1.0000
  H   H29       1.0  0.09660  0.18710  0.50710  1.0000
  H   H30       1.0  0.01850  0.29460  0.52170  1.0000
  C   C15       1.0  0.08910  0.18470  0.61100  1.0000
  H   H31       1.0  0.04770  0.10440  0.60090  1.0000
  H   H32       1.0  0.05580  0.24110  0.63870  1.0000
  C   C16       1.0  0.23390  0.01350  0.64650  1.0000
  H   H33       1.0  0.17320  0.95750  0.64640  1.0000
  H   H34       1.0  0.29440  0.98880  0.68680  1.0000
  C   C17       1.0  0.41320  0.41590  0.73460  1.0000
  H   H35       1.0  0.41450  0.45590  0.77990  1.0000
  H   H36       1.0  0.44770  0.47500  0.70890  1.0000
  C   C18       1.0  0.20390  0.38460  0.48770  1.0000
  H   H37       1.0  0.15500  0.45200  0.46240  1.0000
  H   H38       1.0  0.19520  0.30860  0.45690  1.0000
  N   N4        1.0  0.20440  0.15420  0.65392  1.0000
  N   N5        1.0  0.29930  0.39040  0.69162  1.0000
  N   N6        1.0  0.17700  0.34960  0.55499  1.0000
  O   O10       1.0  0.30050  0.13110  0.54675  1.0000
  O   O11       1.0  0.35320  0.89110  0.57124  1.0000
  O   O12       1.0  0.16360  0.95550  0.50366  1.0000
  H   H39       1.0  0.16830  0.88010  0.49060  1.0000
  O   O13       1.0  0.42860  0.18420  0.68274  1.0000
  O   O14       1.0  0.48320  0.19750  0.81857  1.0000
  O   O15       1.0  0.60570  0.28940  0.75412  1.0000
  H   H40       1.0  0.60860  0.32470  0.71700  1.0000
  O   O16       1.0  0.39460  0.37140  0.58025  1.0000
  O   O17       1.0  0.38900  0.40140  0.44950  1.0000
  O   O18       1.0  0.34340  0.59000  0.51917  1.0000
  H   H41       1.0  0.17320  0.54250  0.14640  1.0000
  H   H42       1.0  0.29440  0.51120  0.18680  1.0000
  C   C19       1.0  0.41320  0.08410  0.23460  1.0000
  H   H43       1.0  0.41450  0.04410  0.27990  1.0000
  H   H44       1.0  0.44770  0.02500  0.20890  1.0000
  C   C20       1.0  0.20390  0.11540  0.98770  1.0000
  H   H45       1.0  0.15500  0.04800  0.96240  1.0000
  H   H46       1.0  0.19520  0.19140  0.95690  1.0000
  N   N7        1.0  0.20440  0.34580  0.15392  1.0000
  N   N8        1.0  0.29930  0.10960  0.19162  1.0000
  N   N9        1.0  0.17700  0.15040  0.05499  1.0000
  O   O19       1.0  0.30050  0.36890  0.04675  1.0000
  O   O20       1.0  0.35320  0.60890  0.07124  1.0000
  O   O21       1.0  0.16360  0.54450  0.00366  1.0000
  H   H47       1.0  0.16830  0.61990  0.99060  1.0000
  O   O22       1.0  0.42860  0.31580  0.18274  1.0000
  O   O23       1.0  0.48320  0.30250  0.31857  1.0000
  O   O24       1.0  0.60570  0.21060  0.25412  1.0000
  H   H48       1.0  0.60860  0.17530  0.21700  1.0000
  O   O25       1.0  0.39460  0.12860  0.08025  1.0000
  O   O26       1.0  0.38900  0.09860  0.94950  1.0000
  O   O27       1.0  0.34340  0.91000  0.01917  1.0000
  P   P7        1.0  0.26970  0.50720  0.06358  1.0000
  P   P8        1.0  0.48509  0.23921  0.25001  1.0000
  P   P9        1.0  0.34291  0.05699  0.00904  1.0000
  C   C21       1.0  0.22330  0.31010  0.23070  1.0000
  H   H49       1.0  0.28930  0.35050  0.25950  1.0000
  H   H50       1.0  0.16380  0.34100  0.24760  1.0000
  C   C22       1.0  0.23200  0.16350  0.23770  1.0000
  H   H51       1.0  0.26540  0.14020  0.28740  1.0000
  H   H52       1.0  0.16040  0.12510  0.22300  1.0000
  C   C23       1.0  0.24770  0.98950  0.15280  1.0000
  H   H53       1.0  0.29870  0.94330  0.13340  1.0000
  H   H54       1.0  0.22540  0.93150  0.18530  1.0000
  C   C24       1.0  0.15010  0.03150  0.09250  1.0000
  H   H55       1.0  0.09040  0.05140  0.11190  1.0000
  H   H56       1.0  0.12790  0.96060  0.05850  1.0000
  C   C25       1.0  0.08750  0.24860  0.04140  1.0000
  H   H57       1.0  0.09660  0.31290  0.00710  1.0000
  H   H58       1.0  0.01850  0.20540  0.02170  1.0000
  C   C26       1.0  0.08910  0.31530  0.11100  1.0000
  H   H59       1.0  0.04770  0.39560  0.10090  1.0000
  H   H60       1.0  0.05580  0.25890  0.13870  1.0000
  C   C27       1.0  0.23390  0.48650  0.14650  1.0000
  P   P10       1.0  0.73030  0.00720  0.43642  1.0000
  P   P11       1.0  0.51491  0.73921  0.24999  1.0000
  P   P12       1.0  0.65709  0.55699  0.49096  1.0000
  C   C28       1.0  0.77670  0.81010  0.26930  1.0000
  H   H61       1.0  0.71070  0.85050  0.24050  1.0000
  H   H62       1.0  0.83620  0.84100  0.25240  1.0000
  C   C29       1.0  0.76800  0.66350  0.26230  1.0000
  H   H63       1.0  0.73460  0.64020  0.21260  1.0000
  H   H64       1.0  0.83960  0.62510  0.27700  1.0000
  C   C30       1.0  0.75230  0.48950  0.34720  1.0000
  H   H65       1.0  0.70130  0.44330  0.36660  1.0000
  H   H66       1.0  0.77460  0.43150  0.31470  1.0000
  C   C31       1.0  0.84990  0.53150  0.40750  1.0000
  H   H67       1.0  0.90960  0.55140  0.38810  1.0000
  H   H68       1.0  0.87210  0.46060  0.44150  1.0000
  C   C32       1.0  0.91250  0.74860  0.45860  1.0000
  H   H69       1.0  0.90340  0.81290  0.49290  1.0000
  H   H70       1.0  0.98150  0.70540  0.47830  1.0000
  C   C33       1.0  0.91090  0.81530  0.38900  1.0000
  H   H71       1.0  0.95230  0.89560  0.39910  1.0000
  H   H72       1.0  0.94420  0.75890  0.36130  1.0000
  C   C34       1.0  0.76610  0.98650  0.35350  1.0000
  H   H73       1.0  0.82680  0.04250  0.35360  1.0000
  H   H74       1.0  0.70560  0.01120  0.31320  1.0000
  C   C35       1.0  0.58680  0.58410  0.26540  1.0000
  H   H75       1.0  0.58550  0.54410  0.22010  1.0000
  H   H76       1.0  0.55230  0.52500  0.29110  1.0000
  C   C36       1.0  0.79610  0.61540  0.51230  1.0000
  H   H77       1.0  0.84500  0.54800  0.53760  1.0000
  H   H78       1.0  0.80480  0.69140  0.54310  1.0000
  N   N10       1.0  0.79560  0.84580  0.34608  1.0000
  N   N11       1.0  0.70070  0.60960  0.30838  1.0000
  N   N12       1.0  0.82300  0.65040  0.44501  1.0000
  O   O28       1.0  0.69950  0.86890  0.45325  1.0000
  O   O29       1.0  0.64680  0.10890  0.42876  1.0000
  O   O30       1.0  0.83640  0.04450  0.49634  1.0000
  H   H79       1.0  0.83170  0.11990  0.50940  1.0000
  O   O31       1.0  0.57140  0.81580  0.31726  1.0000
  O   O32       1.0  0.51680  0.80250  0.18143  1.0000
  O   O33       1.0  0.39430  0.71060  0.24588  1.0000
  H   H80       1.0  0.39140  0.67530  0.28300  1.0000
  O   O34       1.0  0.60540  0.62860  0.41975  1.0000
  O   O35       1.0  0.61100  0.59860  0.55050  1.0000
  O   O36       1.0  0.65660  0.41000  0.48083  1.0000
  Co  Co1       1.0  0.69772  0.76336  0.88173  1.0000
  Ca  Ca1       1.0  0.47894  0.74196  0.56187  1.0000
  Co  Co2       1.0  0.30228  0.23664  0.11827  1.0000
  Ca  Ca2       1.0  0.52106  0.25804  0.43813  1.0000
  Co  Co3       1.0  0.30228  0.26336  0.61827  1.0000
  Ca  Ca3       1.0  0.52106  0.24196  0.93813  1.0000
  Co  Co4       1.0  0.69772  0.73664  0.38173  1.0000
  Ca  Ca4       1.0  0.47894  0.75804  0.06187  1.0000
