data_image0
_chemical_formula_structural       C3HCHC2HCHC2HCHC2HCHCO4C3HCHC2HCHC2HCHC2HCHCO4C3HCHC2HCHC2HCHC2HCHCO4CHCO4C3HCHC2HCHC2HCHC2HC3HCHC2HCHC2HCHC2HCHCO4C3HCHC2HCHC2HCHC2HCHCO4C3HCHC2HCHC2HCHC2HCHCO4HCHC2HCHC2HCHC2HCHCO4C3Mg8
_chemical_formula_sum              "C112 H64 O32 Mg8"
_cell_length_a       10.1426
_cell_length_b       9.1395
_cell_length_c       32.8815
_cell_angle_alpha    90
_cell_angle_beta     90
_cell_angle_gamma    90

_space_group_name_H-M_alt    "P 1"
_space_group_IT_number       1

loop_
  _space_group_symop_operation_xyz
  'x, y, z'

loop_
  _atom_site_type_symbol
  _atom_site_label
  _atom_site_symmetry_multiplicity
  _atom_site_fract_x
  _atom_site_fract_y
  _atom_site_fract_z
  _atom_site_occupancy
  C   C1        1.0  0.39430  0.07080  0.41739  1.0000
  C   C2        1.0  0.38680  0.10030  0.37258  1.0000
  C   C3        1.0  0.48380  0.18040  0.35301  1.0000
  H   H1        1.0  0.55150  0.22250  0.36810  1.0000
  C   C4        1.0  0.48070  0.19830  0.31121  1.0000
  H   H2        1.0  0.54670  0.25230  0.29860  1.0000
  C   C5        1.0  0.38070  0.13710  0.28763  1.0000
  C   C6        1.0  0.28160  0.05980  0.30796  1.0000
  H   H3        1.0  0.21230  0.01990  0.29310  1.0000
  C   C7        1.0  0.28470  0.04170  0.34969  1.0000
  H   H4        1.0  0.21780  0.98970  0.36250  1.0000
  C   C8        1.0  0.37940  0.15330  0.24268  1.0000
  C   C9        1.0  0.44130  0.27160  0.22384  1.0000
  H   H5        1.0  0.48990  0.33700  0.23950  1.0000
  C   C10       1.0  0.43150  0.29320  0.18230  1.0000
  H   H6        1.0  0.47270  0.37340  0.17040  1.0000
  C   C11       1.0  0.36040  0.19600  0.15809  1.0000
  C   C12       1.0  0.30550  0.07310  0.17619  1.0000
  H   H7        1.0  0.26200  0.00430  0.16030  1.0000
  C   C13       1.0  0.31520  0.05210  0.21790  1.0000
  H   H8        1.0  0.27820  0.96900  0.22950  1.0000
  C   C14       1.0  0.33370  0.23240  0.11441  1.0000
  O   O1        1.0  0.29757  0.01270  0.43412  1.0000
  O   O2        1.0  0.49873  0.10653  0.43659  1.0000
  O   O3        1.0  0.27020  0.14389  0.09309  1.0000
  O   O4        1.0  0.37351  0.35460  0.10208  1.0000
  C   C15       1.0  0.10570  0.92920  0.91739  1.0000
  C   C16       1.0  0.11320  0.89970  0.87258  1.0000
  C   C17       1.0  0.01620  0.81960  0.85301  1.0000
  H   H9        1.0  0.94850  0.77750  0.86810  1.0000
  C   C18       1.0  0.01930  0.80170  0.81121  1.0000
  H   H10       1.0  0.95330  0.74770  0.79860  1.0000
  C   C19       1.0  0.11930  0.86290  0.78763  1.0000
  C   C20       1.0  0.21840  0.94020  0.80796  1.0000
  H   H11       1.0  0.28770  0.98010  0.79310  1.0000
  C   C21       1.0  0.21530  0.95830  0.84969  1.0000
  H   H12       1.0  0.28220  0.01030  0.86250  1.0000
  C   C22       1.0  0.12060  0.84670  0.74268  1.0000
  C   C23       1.0  0.05870  0.72840  0.72384  1.0000
  H   H13       1.0  0.01010  0.66300  0.73950  1.0000
  C   C24       1.0  0.06850  0.70680  0.68230  1.0000
  H   H14       1.0  0.02730  0.62660  0.67040  1.0000
  C   C25       1.0  0.13960  0.80400  0.65809  1.0000
  C   C26       1.0  0.19450  0.92690  0.67619  1.0000
  H   H15       1.0  0.23800  0.99570  0.66030  1.0000
  C   C27       1.0  0.18480  0.94790  0.71790  1.0000
  H   H16       1.0  0.22180  0.03100  0.72950  1.0000
  C   C28       1.0  0.16630  0.76760  0.61441  1.0000
  O   O5        1.0  0.20243  0.98730  0.93412  1.0000
  O   O6        1.0  0.00127  0.89347  0.93659  1.0000
  O   O7        1.0  0.22980  0.85611  0.59309  1.0000
  O   O8        1.0  0.12649  0.64540  0.60208  1.0000
  C   C29       1.0  0.60570  0.57080  0.08261  1.0000
  C   C30       1.0  0.61320  0.60030  0.12742  1.0000
  C   C31       1.0  0.51620  0.68040  0.14699  1.0000
  H   H17       1.0  0.44850  0.72250  0.13190  1.0000
  C   C32       1.0  0.51930  0.69830  0.18879  1.0000
  H   H18       1.0  0.45330  0.75230  0.20140  1.0000
  C   C33       1.0  0.61930  0.63710  0.21237  1.0000
  C   C34       1.0  0.71840  0.55980  0.19204  1.0000
  H   H19       1.0  0.78770  0.51990  0.20690  1.0000
  C   C35       1.0  0.71530  0.54170  0.15031  1.0000
  H   H20       1.0  0.78220  0.48970  0.13750  1.0000
  C   C36       1.0  0.62060  0.65330  0.25732  1.0000
  C   C37       1.0  0.55870  0.77160  0.27616  1.0000
  H   H21       1.0  0.51010  0.83700  0.26050  1.0000
  C   C38       1.0  0.56850  0.79320  0.31770  1.0000
  H   H22       1.0  0.52730  0.87340  0.32960  1.0000
  C   C39       1.0  0.63960  0.69600  0.34191  1.0000
  C   C40       1.0  0.69450  0.57310  0.32381  1.0000
  H   H23       1.0  0.73800  0.50430  0.33970  1.0000
  C   C41       1.0  0.68480  0.55210  0.28210  1.0000
  H   H24       1.0  0.72180  0.46900  0.27050  1.0000
  C   C42       1.0  0.66630  0.73240  0.38559  1.0000
  O   O9        1.0  0.70243  0.51270  0.06588  1.0000
  O   O10       1.0  0.50127  0.60653  0.06341  1.0000
  O   O11       1.0  0.72980  0.64389  0.40691  1.0000
  O   O12       1.0  0.62649  0.85460  0.39792  1.0000
  C   C43       1.0  0.81520  0.44790  0.78210  1.0000
  H   H25       1.0  0.77820  0.53100  0.77050  1.0000
  C   C44       1.0  0.83370  0.26760  0.88559  1.0000
  O   O13       1.0  0.79757  0.48730  0.56588  1.0000
  O   O14       1.0  0.99873  0.39347  0.56341  1.0000
  O   O15       1.0  0.77020  0.35611  0.90691  1.0000
  O   O16       1.0  0.87351  0.14540  0.89792  1.0000
  C   C45       1.0  0.89430  0.42920  0.58261  1.0000
  C   C46       1.0  0.88680  0.39970  0.62742  1.0000
  C   C47       1.0  0.98380  0.31960  0.64699  1.0000
  H   H26       1.0  0.05150  0.27750  0.63190  1.0000
  C   C48       1.0  0.98070  0.30170  0.68879  1.0000
  H   H27       1.0  0.04670  0.24770  0.70140  1.0000
  C   C49       1.0  0.88070  0.36290  0.71237  1.0000
  C   C50       1.0  0.78160  0.44020  0.69204  1.0000
  H   H28       1.0  0.71230  0.48010  0.70690  1.0000
  C   C51       1.0  0.78470  0.45830  0.65031  1.0000
  H   H29       1.0  0.71780  0.51030  0.63750  1.0000
  C   C52       1.0  0.87940  0.34670  0.75732  1.0000
  C   C53       1.0  0.94130  0.22840  0.77616  1.0000
  H   H30       1.0  0.98990  0.16300  0.76050  1.0000
  C   C54       1.0  0.93150  0.20680  0.81770  1.0000
  H   H31       1.0  0.97270  0.12660  0.82960  1.0000
  C   C55       1.0  0.86040  0.30400  0.84191  1.0000
  C   C56       1.0  0.80550  0.42690  0.82381  1.0000
  H   H32       1.0  0.76200  0.49570  0.83970  1.0000
  C   C57       1.0  0.60570  0.92920  0.58261  1.0000
  C   C58       1.0  0.61320  0.89970  0.62742  1.0000
  C   C59       1.0  0.51620  0.81960  0.64699  1.0000
  H   H33       1.0  0.44850  0.77750  0.63190  1.0000
  C   C60       1.0  0.51930  0.80170  0.68879  1.0000
  H   H34       1.0  0.45330  0.74770  0.70140  1.0000
  C   C61       1.0  0.61930  0.86290  0.71237  1.0000
  C   C62       1.0  0.71840  0.94020  0.69204  1.0000
  H   H35       1.0  0.78770  0.98010  0.70690  1.0000
  C   C63       1.0  0.71530  0.95830  0.65031  1.0000
  H   H36       1.0  0.78220  0.01030  0.63750  1.0000
  C   C64       1.0  0.62060  0.84670  0.75732  1.0000
  C   C65       1.0  0.55870  0.72840  0.77616  1.0000
  H   H37       1.0  0.51010  0.66300  0.76050  1.0000
  C   C66       1.0  0.56850  0.70680  0.81770  1.0000
  H   H38       1.0  0.52730  0.62660  0.82960  1.0000
  C   C67       1.0  0.63960  0.80400  0.84191  1.0000
  C   C68       1.0  0.69450  0.92690  0.82381  1.0000
  H   H39       1.0  0.73800  0.99570  0.83970  1.0000
  C   C69       1.0  0.68480  0.94790  0.78210  1.0000
  H   H40       1.0  0.72180  0.03100  0.77050  1.0000
  C   C70       1.0  0.66630  0.76760  0.88559  1.0000
  O   O17       1.0  0.70243  0.98730  0.56588  1.0000
  O   O18       1.0  0.50127  0.89347  0.56341  1.0000
  O   O19       1.0  0.72980  0.85611  0.90691  1.0000
  O   O20       1.0  0.62649  0.64540  0.89792  1.0000
  C   C71       1.0  0.89430  0.07080  0.08261  1.0000
  C   C72       1.0  0.88680  0.10030  0.12742  1.0000
  C   C73       1.0  0.98380  0.18040  0.14699  1.0000
  H   H41       1.0  0.05150  0.22250  0.13190  1.0000
  C   C74       1.0  0.98070  0.19830  0.18879  1.0000
  H   H42       1.0  0.04670  0.25230  0.20140  1.0000
  C   C75       1.0  0.88070  0.13710  0.21237  1.0000
  C   C76       1.0  0.78160  0.05980  0.19204  1.0000
  H   H43       1.0  0.71230  0.01990  0.20690  1.0000
  C   C77       1.0  0.78470  0.04170  0.15031  1.0000
  H   H44       1.0  0.71780  0.98970  0.13750  1.0000
  C   C78       1.0  0.87940  0.15330  0.25732  1.0000
  C   C79       1.0  0.94130  0.27160  0.27616  1.0000
  H   H45       1.0  0.98990  0.33700  0.26050  1.0000
  C   C80       1.0  0.93150  0.29320  0.31770  1.0000
  H   H46       1.0  0.97270  0.37340  0.32960  1.0000
  C   C81       1.0  0.86040  0.19600  0.34191  1.0000
  C   C82       1.0  0.80550  0.07310  0.32381  1.0000
  H   H47       1.0  0.76200  0.00430  0.33970  1.0000
  C   C83       1.0  0.81520  0.05210  0.28210  1.0000
  H   H48       1.0  0.77820  0.96900  0.27050  1.0000
  C   C84       1.0  0.83370  0.23240  0.38559  1.0000
  O   O21       1.0  0.79757  0.01270  0.06588  1.0000
  O   O22       1.0  0.99873  0.10653  0.06341  1.0000
  O   O23       1.0  0.77020  0.14389  0.40691  1.0000
  O   O24       1.0  0.87351  0.35460  0.39792  1.0000
  C   C85       1.0  0.39430  0.42920  0.91739  1.0000
  C   C86       1.0  0.38680  0.39970  0.87258  1.0000
  C   C87       1.0  0.48380  0.31960  0.85301  1.0000
  H   H49       1.0  0.55150  0.27750  0.86810  1.0000
  C   C88       1.0  0.48070  0.30170  0.81121  1.0000
  H   H50       1.0  0.54670  0.24770  0.79860  1.0000
  C   C89       1.0  0.38070  0.36290  0.78763  1.0000
  C   C90       1.0  0.28160  0.44020  0.80796  1.0000
  H   H51       1.0  0.21230  0.48010  0.79310  1.0000
  C   C91       1.0  0.28470  0.45830  0.84969  1.0000
  H   H52       1.0  0.21780  0.51030  0.86250  1.0000
  C   C92       1.0  0.37940  0.34670  0.74268  1.0000
  C   C93       1.0  0.44130  0.22840  0.72384  1.0000
  H   H53       1.0  0.48990  0.16300  0.73950  1.0000
  C   C94       1.0  0.43150  0.20680  0.68230  1.0000
  H   H54       1.0  0.47270  0.12660  0.67040  1.0000
  C   C95       1.0  0.36040  0.30400  0.65809  1.0000
  C   C96       1.0  0.30550  0.42690  0.67619  1.0000
  H   H55       1.0  0.26200  0.49570  0.66030  1.0000
  C   C97       1.0  0.31520  0.44790  0.71790  1.0000
  H   H56       1.0  0.27820  0.53100  0.72950  1.0000
  C   C98       1.0  0.33370  0.26760  0.61441  1.0000
  O   O25       1.0  0.29757  0.48730  0.93412  1.0000
  O   O26       1.0  0.49873  0.39347  0.93659  1.0000
  O   O27       1.0  0.27020  0.35611  0.59309  1.0000
  O   O28       1.0  0.37351  0.14540  0.60208  1.0000
  H   H57       1.0  0.94850  0.72250  0.36810  1.0000
  C   C99       1.0  0.01930  0.69830  0.31121  1.0000
  H   H58       1.0  0.95330  0.75230  0.29860  1.0000
  C   C100      1.0  0.11930  0.63710  0.28763  1.0000
  C   C101      1.0  0.21840  0.55980  0.30796  1.0000
  H   H59       1.0  0.28770  0.51990  0.29310  1.0000
  C   C102      1.0  0.21530  0.54170  0.34969  1.0000
  H   H60       1.0  0.28220  0.48970  0.36250  1.0000
  C   C103      1.0  0.12060  0.65330  0.24268  1.0000
  C   C104      1.0  0.05870  0.77160  0.22384  1.0000
  H   H61       1.0  0.01010  0.83700  0.23950  1.0000
  C   C105      1.0  0.06850  0.79320  0.18230  1.0000
  H   H62       1.0  0.02730  0.87340  0.17040  1.0000
  C   C106      1.0  0.13960  0.69600  0.15809  1.0000
  C   C107      1.0  0.19450  0.57310  0.17619  1.0000
  H   H63       1.0  0.23800  0.50430  0.16030  1.0000
  C   C108      1.0  0.18480  0.55210  0.21790  1.0000
  H   H64       1.0  0.22180  0.46900  0.22950  1.0000
  C   C109      1.0  0.16630  0.73240  0.11441  1.0000
  O   O29       1.0  0.20243  0.51270  0.43412  1.0000
  O   O30       1.0  0.00127  0.60653  0.43659  1.0000
  O   O31       1.0  0.22980  0.64389  0.09309  1.0000
  O   O32       1.0  0.12649  0.85460  0.10208  1.0000
  C   C110      1.0  0.10570  0.57080  0.41739  1.0000
  C   C111      1.0  0.11320  0.60030  0.37258  1.0000
  C   C112      1.0  0.01620  0.68040  0.35301  1.0000
  Mg  Mg1       1.0  0.67908  0.99435  0.44217  1.0000
  Mg  Mg2       1.0  0.82092  0.00565  0.94217  1.0000
  Mg  Mg3       1.0  0.32092  0.49435  0.05783  1.0000
  Mg  Mg4       1.0  0.17908  0.50565  0.55783  1.0000
  Mg  Mg5       1.0  0.32092  0.00565  0.55783  1.0000
  Mg  Mg6       1.0  0.17908  0.99435  0.05783  1.0000
  Mg  Mg7       1.0  0.67908  0.50565  0.94217  1.0000
  Mg  Mg8       1.0  0.82092  0.49435  0.44217  1.0000
