data_image0
_chemical_formula_structural       C6HO2H3O2N2C3HC3HO2H2O2N2O2C6HO2H2N2HCHO2HC3HC2OHON3CNCHO2H3O2C4NCNCHC4HO2H2O2N2C6H2O2H2O3N2C3HC3H3O3C2O7C2OC2O5C2O3Ce8
_chemical_formula_sum              "C56 H32 O48 N16 Ce8"
_cell_length_a       10.416
_cell_length_b       11.44
_cell_length_c       22.457
_cell_angle_alpha    90
_cell_angle_beta     97.695
_cell_angle_gamma    90

_space_group_name_H-M_alt    "P 1"
_space_group_IT_number       1

loop_
  _space_group_symop_operation_xyz
  'x, y, z'

loop_
  _atom_site_type_symbol
  _atom_site_label
  _atom_site_symmetry_multiplicity
  _atom_site_fract_x
  _atom_site_fract_y
  _atom_site_fract_z
  _atom_site_occupancy
  C   C1        1.0  0.99580  0.38280  0.95125  1.0000
  C   C2        1.0  0.05240  0.36870  0.89424  1.0000
  C   C3        1.0  0.17300  0.35020  0.87750  1.0000
  C   C4        1.0  0.30420  0.34830  0.91304  1.0000
  C   C5        1.0  0.03730  0.34550  0.79546  1.0000
  C   C6        1.0  0.97560  0.33660  0.73153  1.0000
  H   H1        1.0  0.88630  0.37560  0.83790  1.0000
  O   O1        1.0  0.87680  0.40730  0.94510  1.0000
  O   O2        1.0  0.06330  0.36620  0.00050  1.0000
  H   H2        1.0  0.02300  0.28190  0.71050  1.0000
  H   H3        1.0  0.88780  0.31020  0.73040  1.0000
  H   H4        1.0  0.97620  0.41190  0.71270  1.0000
  O   O3        1.0  0.39800  0.31934  0.88568  1.0000
  O   O4        1.0  0.31920  0.37710  0.96689  1.0000
  N   N1        1.0  0.96880  0.36590  0.84122  1.0000
  N   N2        1.0  0.16210  0.33600  0.81572  1.0000
  C   C7        1.0  0.91660  0.67770  0.81930  1.0000
  C   C8        1.0  0.84600  0.63790  0.76076  1.0000
  C   C9        1.0  0.74170  0.56430  0.74685  1.0000
  H   H5        1.0  0.66360  0.52120  0.66320  1.0000
  C   C10       1.0  0.81090  0.62950  0.66374  1.0000
  C   C11       1.0  0.66040  0.48730  0.78051  1.0000
  C   C12       1.0  0.81820  0.64640  0.59844  1.0000
  H   H6        1.0  0.90560  0.63420  0.59070  1.0000
  O   O5        1.0  0.68510  0.47830  0.83664  1.0000
  O   O6        1.0  0.57380  0.43300  0.74833  1.0000
  H   H7        1.0  0.76200  0.59150  0.57560  1.0000
  H   H8        1.0  0.79170  0.72450  0.58700  1.0000
  O   O7        1.0  0.87090  0.65880  0.86663  1.0000
  O   O8        1.0  0.02060  0.73160  0.81759  1.0000
  N   N3        1.0  0.88870  0.67780  0.70871  1.0000
  N   N4        1.0  0.72260  0.56090  0.68486  1.0000
  O   O9        1.0  0.10200  0.81934  0.61432  1.0000
  O   O10       1.0  0.18080  0.87710  0.53311  1.0000
  C   C13       1.0  0.50420  0.88280  0.54875  1.0000
  C   C14       1.0  0.44760  0.86870  0.60576  1.0000
  C   C15       1.0  0.32700  0.85020  0.62250  1.0000
  C   C16       1.0  0.19580  0.84830  0.58696  1.0000
  C   C17       1.0  0.46270  0.84550  0.70454  1.0000
  C   C18       1.0  0.52440  0.83660  0.76847  1.0000
  H   H9        1.0  0.61370  0.87560  0.66210  1.0000
  O   O11       1.0  0.62320  0.90730  0.55490  1.0000
  O   O12       1.0  0.43670  0.86620  0.49950  1.0000
  H   H10       1.0  0.47700  0.78190  0.78950  1.0000
  H   H11       1.0  0.52380  0.91190  0.78730  1.0000
  N   N5        1.0  0.53120  0.86590  0.65878  1.0000
  N   N6        1.0  0.33790  0.83600  0.68428  1.0000
  H   H12       1.0  0.61220  0.81020  0.76960  1.0000
  C   C19       1.0  0.68180  0.14640  0.90156  1.0000
  H   H13       1.0  0.59440  0.13420  0.90930  1.0000
  O   O13       1.0  0.47940  0.23160  0.68241  1.0000
  O   O14       1.0  0.62910  0.15880  0.63337  1.0000
  H   H14       1.0  0.70830  0.22450  0.91300  1.0000
  C   C20       1.0  0.58340  0.17770  0.68070  1.0000
  C   C21       1.0  0.65400  0.13790  0.73924  1.0000
  C   C22       1.0  0.75830  0.06430  0.75315  1.0000
  H   H15       1.0  0.83640  0.02120  0.83680  1.0000
  C   C23       1.0  0.68910  0.12950  0.83626  1.0000
  C   C24       1.0  0.83960  0.98730  0.71949  1.0000
  O   O15       1.0  0.92620  0.93300  0.75167  1.0000
  H   H16       1.0  0.73800  0.09150  0.92440  1.0000
  O   O16       1.0  0.81490  0.97830  0.66336  1.0000
  N   N7        1.0  0.61130  0.17780  0.79129  1.0000
  N   N8        1.0  0.77740  0.06090  0.81514  1.0000
  N   N9        1.0  0.03120  0.63410  0.15878  1.0000
  C   C25       1.0  0.96270  0.65450  0.20454  1.0000
  N   N10       1.0  0.83790  0.66400  0.18428  1.0000
  C   C26       1.0  0.02440  0.66340  0.26847  1.0000
  H   H17       1.0  0.11370  0.62440  0.16210  1.0000
  O   O17       1.0  0.12320  0.59270  0.05490  1.0000
  O   O18       1.0  0.93670  0.63380  0.99950  1.0000
  H   H18       1.0  0.97700  0.71810  0.28950  1.0000
  H   H19       1.0  0.11220  0.68980  0.26960  1.0000
  H   H20       1.0  0.02380  0.58810  0.28730  1.0000
  O   O19       1.0  0.68080  0.62290  0.03311  1.0000
  O   O20       1.0  0.60200  0.68066  0.11432  1.0000
  C   C27       1.0  0.00420  0.61720  0.04875  1.0000
  C   C28       1.0  0.94760  0.63130  0.10576  1.0000
  C   C29       1.0  0.82700  0.64980  0.12250  1.0000
  C   C30       1.0  0.69580  0.65170  0.08696  1.0000
  N   N11       1.0  0.11130  0.32220  0.29129  1.0000
  C   C31       1.0  0.15400  0.36210  0.23924  1.0000
  N   N12       1.0  0.27740  0.43910  0.31514  1.0000
  C   C32       1.0  0.25830  0.43570  0.25315  1.0000
  H   H21       1.0  0.33640  0.47880  0.33680  1.0000
  C   C33       1.0  0.18910  0.37050  0.33626  1.0000
  C   C34       1.0  0.33960  0.51270  0.21949  1.0000
  C   C35       1.0  0.18180  0.35360  0.40156  1.0000
  C   C36       1.0  0.08340  0.32230  0.18070  1.0000
  H   H22       1.0  0.09440  0.36580  0.40930  1.0000
  O   O21       1.0  0.31490  0.52170  0.16336  1.0000
  O   O22       1.0  0.42620  0.56700  0.25167  1.0000
  H   H23       1.0  0.23800  0.40850  0.42440  1.0000
  H   H24       1.0  0.20830  0.27550  0.41300  1.0000
  O   O23       1.0  0.97940  0.26840  0.18241  1.0000
  O   O24       1.0  0.12910  0.34120  0.13337  1.0000
  N   N13       1.0  0.46880  0.13410  0.34122  1.0000
  N   N14       1.0  0.66210  0.16400  0.31572  1.0000
  C   C37       1.0  0.49580  0.11720  0.45125  1.0000
  C   C38       1.0  0.55240  0.13130  0.39424  1.0000
  C   C39       1.0  0.67300  0.14980  0.37750  1.0000
  C   C40       1.0  0.80420  0.15170  0.41304  1.0000
  C   C41       1.0  0.53730  0.15450  0.29546  1.0000
  C   C42       1.0  0.47560  0.16340  0.23153  1.0000
  H   H25       1.0  0.38630  0.12440  0.33790  1.0000
  H   H26       1.0  0.52300  0.21810  0.21050  1.0000
  O   O25       1.0  0.37680  0.09270  0.44510  1.0000
  O   O26       1.0  0.56330  0.13380  0.50050  1.0000
  H   H27       1.0  0.38780  0.18980  0.23040  1.0000
  H   H28       1.0  0.47620  0.08810  0.21270  1.0000
  O   O27       1.0  0.89800  0.18066  0.38568  1.0000
  O   O28       1.0  0.81920  0.12290  0.46689  1.0000
  O   O29       1.0  0.52060  0.76840  0.31759  1.0000
  N   N15       1.0  0.38870  0.82220  0.20871  1.0000
  N   N16       1.0  0.22260  0.93910  0.18486  1.0000
  C   C43       1.0  0.41660  0.82230  0.31930  1.0000
  C   C44       1.0  0.34600  0.86210  0.26076  1.0000
  C   C45       1.0  0.24170  0.93570  0.24685  1.0000
  H   H29       1.0  0.16360  0.97880  0.16320  1.0000
  C   C46       1.0  0.31090  0.87050  0.16374  1.0000
  C   C47       1.0  0.16040  0.01270  0.28051  1.0000
  C   C48       1.0  0.31820  0.85360  0.09844  1.0000
  H   H30       1.0  0.40560  0.86580  0.09070  1.0000
  H   H31       1.0  0.26200  0.90850  0.07560  1.0000
  H   H32       1.0  0.29170  0.77550  0.08700  1.0000
  O   O30       1.0  0.37090  0.84120  0.36663  1.0000
  O   O31       1.0  0.18510  0.02170  0.33664  1.0000
  O   O32       1.0  0.07380  0.06700  0.24833  1.0000
  C   C49       1.0  0.29610  0.58570  0.77676  1.0000
  C   C50       1.0  0.23440  0.53970  0.71416  1.0000
  O   O33       1.0  0.36880  0.51650  0.80887  1.0000
  O   O34       1.0  0.26980  0.68765  0.79018  1.0000
  O   O35       1.0  0.15680  0.60636  0.68384  1.0000
  O   O36       1.0  0.26710  0.43910  0.69915  1.0000
  O   O37       1.0  0.23020  0.18765  0.70982  1.0000
  O   O38       1.0  0.34320  0.10636  0.81616  1.0000
  O   O39       1.0  0.23290  0.93910  0.80085  1.0000
  C   C51       1.0  0.20390  0.08570  0.72324  1.0000
  C   C52       1.0  0.26560  0.03970  0.78584  1.0000
  O   O40       1.0  0.13120  0.01650  0.69113  1.0000
  C   C53       1.0  0.70390  0.41430  0.22324  1.0000
  C   C54       1.0  0.76560  0.46030  0.28584  1.0000
  O   O41       1.0  0.63120  0.48350  0.19113  1.0000
  O   O42       1.0  0.73020  0.31235  0.20982  1.0000
  O   O43       1.0  0.84320  0.39364  0.31616  1.0000
  O   O44       1.0  0.73290  0.56090  0.30085  1.0000
  O   O45       1.0  0.76710  0.06090  0.19915  1.0000
  C   C55       1.0  0.79610  0.91430  0.27676  1.0000
  C   C56       1.0  0.73440  0.96030  0.21416  1.0000
  O   O46       1.0  0.86880  0.98350  0.30887  1.0000
  O   O47       1.0  0.76980  0.81235  0.29018  1.0000
  O   O48       1.0  0.65680  0.89364  0.18384  1.0000
  Ce  Ce1       1.0  0.39228  0.30702  0.77481  1.0000
  Ce  Ce2       1.0  0.73688  0.58000  0.93495  1.0000
  Ce  Ce3       1.0  0.10772  0.80702  0.72519  1.0000
  Ce  Ce4       1.0  0.76312  0.08000  0.56505  1.0000
  Ce  Ce5       1.0  0.60772  0.69298  0.22519  1.0000
  Ce  Ce6       1.0  0.26312  0.42000  0.06505  1.0000
  Ce  Ce7       1.0  0.89228  0.19298  0.27481  1.0000
  Ce  Ce8       1.0  0.23688  0.92000  0.43495  1.0000
