data_image0
_chemical_formula_structural       C2HC14HC2HCHN4O3SH7CHC6HCHC8HC2HCN4O3SH6C2HC14HC2HCHN4O3SH7C3HCHC8HC2HCN4O3SH6CHC3Cl8Cu4C2HC14HC2HCHN4O3SH7CHC6HCHC8HC2HCN4O3SH6C2HC14HC2HCHN4O3SH7C3HCHC8HC2HCN4O3SH6CHC3Cl8Cu4
_chemical_formula_sum              "C152 H88 N32 O24 S8 Cl16 Cu8"
_cell_length_a       15.258
_cell_length_b       15.946
_cell_length_c       16.469
_cell_angle_alpha    92.875
_cell_angle_beta     99.764
_cell_angle_gamma    101.239

_space_group_name_H-M_alt    "P 1"
_space_group_IT_number       1

loop_
  _space_group_symop_operation_xyz
  'x, y, z'

loop_
  _atom_site_type_symbol
  _atom_site_label
  _atom_site_symmetry_multiplicity
  _atom_site_fract_x
  _atom_site_fract_y
  _atom_site_fract_z
  _atom_site_occupancy
  C   C1        1.0  0.36445  0.13420  0.24610  1.0000
  C   C2        1.0  0.38075  0.07140  0.30020  1.0000
  H   H1        1.0  0.42305  0.08640  0.34900  1.0000
  C   C3        1.0  0.33540  0.98950  0.28180  1.0000
  C   C4        1.0  0.27015  0.96950  0.20890  1.0000
  C   C5        1.0  0.25510  0.03520  0.15870  1.0000
  C   C6        1.0  0.12720  0.07740  0.96570  1.0000
  C   C7        1.0  0.07455  0.99750  0.93240  1.0000
  C   C8        1.0  0.08065  0.92720  0.97660  1.0000
  C   C9        1.0  0.13650  0.93640  0.05390  1.0000
  C   C10       1.0  0.18850  0.01950  0.08210  1.0000
  C   C11       1.0  0.21785  0.88730  0.17880  1.0000
  C   C12       1.0  0.15095  0.86990  0.10620  1.0000
  C   C13       1.0  0.15645  0.74850  0.16080  1.0000
  C   C14       1.0  0.13740  0.65540  0.16950  1.0000
  C   C15       1.0  0.14560  0.61760  0.24470  1.0000
  C   C16       1.0  0.12585  0.52860  0.24510  1.0000
  H   H2        1.0  0.13340  0.50380  0.29500  1.0000
  C   C17       1.0  0.09510  0.47680  0.17210  1.0000
  C   C18       1.0  0.08780  0.51220  0.09760  1.0000
  H   H3        1.0  0.06915  0.47710  0.04840  1.0000
  C   C19       1.0  0.10810  0.59980  0.09610  1.0000
  H   H4        1.0  0.10240  0.62330  0.04540  1.0000
  N   N1        1.0  0.30350  0.11790  0.17760  1.0000
  N   N2        1.0  0.18340  0.08980  0.03820  1.0000
  N   N3        1.0  0.21735  0.80780  0.20990  1.0000
  N   N4        1.0  0.11605  0.78470  0.09650  1.0000
  O   O1        1.0  0.18405  0.61530  0.40320  1.0000
  O   O2        1.0  0.11710  0.73210  0.34910  1.0000
  O   O3        1.0  0.27235  0.72820  0.34150  1.0000
  S   S1        1.0  0.18165  0.67894  0.34245  1.0000
  H   H5        1.0  0.40700  0.19400  0.25700  1.0000
  H   H6        1.0  0.35000  0.94500  0.32200  1.0000
  H   H7        1.0  0.11800  0.12100  0.93000  1.0000
  H   H8        1.0  0.02700  0.98900  0.87300  1.0000
  H   H9        1.0  0.04700  0.88300  0.95400  1.0000
  H   H10       1.0  0.08700  0.42100  0.17400  1.0000
  H   H11       1.0  0.25150  0.79100  0.25500  1.0000
  C   C20       1.0  0.46405  0.70950  0.50670  1.0000
  H   H12       1.0  0.48700  0.76600  0.52850  1.0000
  C   C21       1.0  0.44745  0.64700  0.56070  1.0000
  C   C22       1.0  0.41070  0.56340  0.53100  1.0000
  C   C23       1.0  0.39215  0.54410  0.44510  1.0000
  C   C24       1.0  0.41460  0.61080  0.39520  1.0000
  C   C25       1.0  0.40080  0.65360  0.18130  1.0000
  C   C26       1.0  0.36220  0.57470  0.13720  1.0000
  H   H13       1.0  0.35060  0.56980  0.07970  1.0000
  C   C27       1.0  0.34170  0.50490  0.17940  1.0000
  H   H14       1.0  0.31655  0.45140  0.15090  1.0000
  C   C28       1.0  0.35855  0.51360  0.26610  1.0000
  C   C29       1.0  0.39515  0.59320  0.30480  1.0000
  C   C30       1.0  0.35325  0.46230  0.40380  1.0000
  C   C31       1.0  0.33695  0.44780  0.31870  1.0000
  C   C32       1.0  0.28405  0.32470  0.37010  1.0000
  C   C33       1.0  0.24860  0.23720  0.38080  1.0000
  C   C34       1.0  0.28230  0.20280  0.45190  1.0000
  C   C35       1.0  0.24730  0.11930  0.46830  1.0000
  H   H15       1.0  0.27105  0.09780  0.51680  1.0000
  C   C36       1.0  0.17955  0.07060  0.41410  1.0000
  C   C37       1.0  0.14440  0.09950  0.34090  1.0000
  H   H16       1.0  0.09900  0.06290  0.30330  1.0000
  C   C38       1.0  0.17560  0.18240  0.32230  1.0000
  N   N5        1.0  0.44885  0.69250  0.42560  1.0000
  N   N6        1.0  0.41995  0.66590  0.26360  1.0000
  N   N7        1.0  0.32050  0.38500  0.43470  1.0000
  N   N8        1.0  0.29475  0.36190  0.30040  1.0000
  O   O4        1.0  0.18665  0.25050  0.18250  1.0000
  O   O5        1.0  0.08315  0.28990  0.26400  1.0000
  O   O6        1.0  0.05335  0.14740  0.18990  1.0000
  S   S2        1.0  0.11840  0.21937  0.23232  1.0000
  H   H17       1.0  0.26300  0.33200  0.25300  1.0000
  H   H18       1.0  0.44650  0.65900  0.60700  1.0000
  H   H19       1.0  0.40250  0.52700  0.56700  1.0000
  H   H20       1.0  0.43800  0.70400  0.15900  1.0000
  H   H21       1.0  0.33050  0.23800  0.48700  1.0000
  H   H22       1.0  0.15650  0.01900  0.41900  1.0000
  C   C39       1.0  0.13555  0.86580  0.75390  1.0000
  C   C40       1.0  0.11925  0.92860  0.69980  1.0000
  H   H23       1.0  0.07695  0.91360  0.65100  1.0000
  C   C41       1.0  0.16460  0.01050  0.71820  1.0000
  C   C42       1.0  0.22985  0.03050  0.79110  1.0000
  C   C43       1.0  0.24490  0.96480  0.84130  1.0000
  C   C44       1.0  0.37280  0.92260  0.03430  1.0000
  C   C45       1.0  0.42545  0.00250  0.06760  1.0000
  C   C46       1.0  0.41935  0.07280  0.02340  1.0000
  C   C47       1.0  0.36350  0.06360  0.94610  1.0000
  C   C48       1.0  0.31150  0.98050  0.91790  1.0000
  C   C49       1.0  0.28215  0.11270  0.82120  1.0000
  C   C50       1.0  0.34905  0.13010  0.89380  1.0000
  C   C51       1.0  0.34355  0.25150  0.83920  1.0000
  C   C52       1.0  0.36260  0.34460  0.83050  1.0000
  C   C53       1.0  0.35440  0.38240  0.75530  1.0000
  C   C54       1.0  0.37415  0.47140  0.75490  1.0000
  H   H24       1.0  0.36660  0.49620  0.70500  1.0000
  C   C55       1.0  0.40490  0.52320  0.82790  1.0000
  C   C56       1.0  0.41220  0.48780  0.90240  1.0000
  H   H25       1.0  0.43085  0.52290  0.95160  1.0000
  C   C57       1.0  0.39190  0.40020  0.90390  1.0000
  H   H26       1.0  0.39760  0.37670  0.95460  1.0000
  N   N9        1.0  0.19650  0.88210  0.82240  1.0000
  N   N10       1.0  0.31660  0.91020  0.96180  1.0000
  N   N11       1.0  0.28265  0.19220  0.79010  1.0000
  N   N12       1.0  0.38395  0.21530  0.90350  1.0000
  O   O7        1.0  0.31595  0.38470  0.59680  1.0000
  O   O8        1.0  0.38290  0.26790  0.65090  1.0000
  O   O9        1.0  0.22765  0.27180  0.65850  1.0000
  S   S3        1.0  0.31835  0.32106  0.65755  1.0000
  H   H27       1.0  0.09300  0.80600  0.74300  1.0000
  H   H28       1.0  0.15000  0.05500  0.67800  1.0000
  H   H29       1.0  0.38200  0.87900  0.07000  1.0000
  H   H30       1.0  0.47300  0.01100  0.12700  1.0000
  H   H31       1.0  0.45300  0.11700  0.04600  1.0000
  H   H32       1.0  0.41300  0.57900  0.82600  1.0000
  H   H33       1.0  0.24850  0.20900  0.74500  1.0000
  C   C58       1.0  0.08540  0.38920  0.60480  1.0000
  C   C59       1.0  0.09920  0.34640  0.81870  1.0000
  C   C60       1.0  0.13780  0.42530  0.86280  1.0000
  H   H34       1.0  0.14940  0.43020  0.92030  1.0000
  C   C61       1.0  0.15830  0.49510  0.82060  1.0000
  H   H35       1.0  0.18345  0.54860  0.84910  1.0000
  C   C62       1.0  0.14145  0.48640  0.73390  1.0000
  C   C63       1.0  0.10485  0.40680  0.69520  1.0000
  C   C64       1.0  0.14675  0.53770  0.59620  1.0000
  C   C65       1.0  0.16305  0.55220  0.68130  1.0000
  C   C66       1.0  0.21595  0.67530  0.62990  1.0000
  C   C67       1.0  0.25140  0.76280  0.61920  1.0000
  C   C68       1.0  0.21770  0.79720  0.54810  1.0000
  C   C69       1.0  0.25270  0.88070  0.53170  1.0000
  H   H36       1.0  0.22895  0.90220  0.48320  1.0000
  C   C70       1.0  0.32045  0.92940  0.58590  1.0000
  C   C71       1.0  0.35560  0.90050  0.65910  1.0000
  H   H37       1.0  0.40100  0.93710  0.69670  1.0000
  C   C72       1.0  0.32440  0.81760  0.67770  1.0000
  N   N13       1.0  0.05115  0.30750  0.57440  1.0000
  N   N14       1.0  0.08005  0.33410  0.73640  1.0000
  N   N15       1.0  0.17950  0.61500  0.56530  1.0000
  N   N16       1.0  0.20525  0.63810  0.69960  1.0000
  O   O10       1.0  0.31335  0.74950  0.81750  1.0000
  O   O11       1.0  0.41685  0.71010  0.73600  1.0000
  O   O12       1.0  0.44665  0.85260  0.81010  1.0000
  S   S4        1.0  0.38160  0.78063  0.76768  1.0000
  H   H38       1.0  0.23700  0.66800  0.74700  1.0000
  H   H39       1.0  0.05350  0.34100  0.39300  1.0000
  H   H40       1.0  0.09750  0.47300  0.43300  1.0000
  H   H41       1.0  0.06200  0.29600  0.84100  1.0000
  H   H42       1.0  0.16950  0.76200  0.51300  1.0000
  H   H43       1.0  0.34350  0.98100  0.58100  1.0000
  C   C73       1.0  0.03595  0.29050  0.49330  1.0000
  H   H44       1.0  0.01300  0.23400  0.47150  1.0000
  C   C74       1.0  0.05255  0.35300  0.43930  1.0000
  C   C75       1.0  0.08930  0.43660  0.46900  1.0000
  C   C76       1.0  0.10785  0.45590  0.55490  1.0000
  Cl  Cl1       1.0  0.39085  0.30300  0.14201  1.0000
  Cl  Cl2       1.0  0.21895  0.27882  0.99179  1.0000
  Cl  Cl3       1.0  0.47835  0.85655  0.22894  1.0000
  Cl  Cl4       1.0  0.49670  0.89064  0.42888  1.0000
  Cl  Cl5       1.0  0.10915  0.69700  0.85799  1.0000
  Cl  Cl6       1.0  0.28105  0.72118  0.00821  1.0000
  Cl  Cl7       1.0  0.02165  0.14345  0.77106  1.0000
  Cl  Cl8       1.0  0.00330  0.10936  0.57112  1.0000
  Cu  Cu1       1.0  0.46815  0.77722  0.33729  1.0000
  Cu  Cu2       1.0  0.03185  0.22278  0.66271  1.0000
  Cu  Cu3       1.0  0.23308  0.80025  0.90641  1.0000
  Cu  Cu4       1.0  0.26691  0.19975  0.09359  1.0000
  C   C77       1.0  0.86445  0.13420  0.24610  1.0000
  C   C78       1.0  0.88075  0.07140  0.30020  1.0000
  H   H45       1.0  0.92305  0.08640  0.34900  1.0000
  C   C79       1.0  0.83540  0.98950  0.28180  1.0000
  C   C80       1.0  0.77015  0.96950  0.20890  1.0000
  C   C81       1.0  0.75510  0.03520  0.15870  1.0000
  C   C82       1.0  0.62720  0.07740  0.96570  1.0000
  C   C83       1.0  0.57455  0.99750  0.93240  1.0000
  C   C84       1.0  0.58065  0.92720  0.97660  1.0000
  C   C85       1.0  0.63650  0.93640  0.05390  1.0000
  C   C86       1.0  0.68850  0.01950  0.08210  1.0000
  C   C87       1.0  0.71785  0.88730  0.17880  1.0000
  C   C88       1.0  0.65095  0.86990  0.10620  1.0000
  C   C89       1.0  0.65645  0.74850  0.16080  1.0000
  C   C90       1.0  0.63740  0.65540  0.16950  1.0000
  C   C91       1.0  0.64560  0.61760  0.24470  1.0000
  C   C92       1.0  0.62585  0.52860  0.24510  1.0000
  H   H46       1.0  0.63340  0.50380  0.29500  1.0000
  C   C93       1.0  0.59510  0.47680  0.17210  1.0000
  C   C94       1.0  0.58780  0.51220  0.09760  1.0000
  H   H47       1.0  0.56915  0.47710  0.04840  1.0000
  C   C95       1.0  0.60810  0.59980  0.09610  1.0000
  H   H48       1.0  0.60240  0.62330  0.04540  1.0000
  N   N17       1.0  0.80350  0.11790  0.17760  1.0000
  N   N18       1.0  0.68340  0.08980  0.03820  1.0000
  N   N19       1.0  0.71735  0.80780  0.20990  1.0000
  N   N20       1.0  0.61605  0.78470  0.09650  1.0000
  O   O13       1.0  0.68405  0.61530  0.40320  1.0000
  O   O14       1.0  0.61710  0.73210  0.34910  1.0000
  O   O15       1.0  0.77235  0.72820  0.34150  1.0000
  S   S5        1.0  0.68165  0.67894  0.34245  1.0000
  H   H49       1.0  0.90700  0.19400  0.25700  1.0000
  H   H50       1.0  0.85000  0.94500  0.32200  1.0000
  H   H51       1.0  0.61800  0.12100  0.93000  1.0000
  H   H52       1.0  0.52700  0.98900  0.87300  1.0000
  H   H53       1.0  0.54700  0.88300  0.95400  1.0000
  H   H54       1.0  0.58700  0.42100  0.17400  1.0000
  H   H55       1.0  0.75150  0.79100  0.25500  1.0000
  C   C96       1.0  0.96405  0.70950  0.50670  1.0000
  H   H56       1.0  0.98700  0.76600  0.52850  1.0000
  C   C97       1.0  0.94745  0.64700  0.56070  1.0000
  C   C98       1.0  0.91070  0.56340  0.53100  1.0000
  C   C99       1.0  0.89215  0.54410  0.44510  1.0000
  C   C100      1.0  0.91460  0.61080  0.39520  1.0000
  C   C101      1.0  0.90080  0.65360  0.18130  1.0000
  C   C102      1.0  0.86220  0.57470  0.13720  1.0000
  H   H57       1.0  0.85060  0.56980  0.07970  1.0000
  C   C103      1.0  0.84170  0.50490  0.17940  1.0000
  H   H58       1.0  0.81655  0.45140  0.15090  1.0000
  C   C104      1.0  0.85855  0.51360  0.26610  1.0000
  C   C105      1.0  0.89515  0.59320  0.30480  1.0000
  C   C106      1.0  0.85325  0.46230  0.40380  1.0000
  C   C107      1.0  0.83695  0.44780  0.31870  1.0000
  C   C108      1.0  0.78405  0.32470  0.37010  1.0000
  C   C109      1.0  0.74860  0.23720  0.38080  1.0000
  C   C110      1.0  0.78230  0.20280  0.45190  1.0000
  C   C111      1.0  0.74730  0.11930  0.46830  1.0000
  H   H59       1.0  0.77105  0.09780  0.51680  1.0000
  C   C112      1.0  0.67955  0.07060  0.41410  1.0000
  C   C113      1.0  0.64440  0.09950  0.34090  1.0000
  H   H60       1.0  0.59900  0.06290  0.30330  1.0000
  C   C114      1.0  0.67560  0.18240  0.32230  1.0000
  N   N21       1.0  0.94885  0.69250  0.42560  1.0000
  N   N22       1.0  0.91995  0.66590  0.26360  1.0000
  N   N23       1.0  0.82050  0.38500  0.43470  1.0000
  N   N24       1.0  0.79475  0.36190  0.30040  1.0000
  O   O16       1.0  0.68665  0.25050  0.18250  1.0000
  O   O17       1.0  0.58315  0.28990  0.26400  1.0000
  O   O18       1.0  0.55335  0.14740  0.18990  1.0000
  S   S6        1.0  0.61840  0.21937  0.23232  1.0000
  H   H61       1.0  0.76300  0.33200  0.25300  1.0000
  H   H62       1.0  0.94650  0.65900  0.60700  1.0000
  H   H63       1.0  0.90250  0.52700  0.56700  1.0000
  H   H64       1.0  0.93800  0.70400  0.15900  1.0000
  H   H65       1.0  0.83050  0.23800  0.48700  1.0000
  H   H66       1.0  0.65650  0.01900  0.41900  1.0000
  C   C115      1.0  0.63555  0.86580  0.75390  1.0000
  C   C116      1.0  0.61925  0.92860  0.69980  1.0000
  H   H67       1.0  0.57695  0.91360  0.65100  1.0000
  C   C117      1.0  0.66460  0.01050  0.71820  1.0000
  C   C118      1.0  0.72985  0.03050  0.79110  1.0000
  C   C119      1.0  0.74490  0.96480  0.84130  1.0000
  C   C120      1.0  0.87280  0.92260  0.03430  1.0000
  C   C121      1.0  0.92545  0.00250  0.06760  1.0000
  C   C122      1.0  0.91935  0.07280  0.02340  1.0000
  C   C123      1.0  0.86350  0.06360  0.94610  1.0000
  C   C124      1.0  0.81150  0.98050  0.91790  1.0000
  C   C125      1.0  0.78215  0.11270  0.82120  1.0000
  C   C126      1.0  0.84905  0.13010  0.89380  1.0000
  C   C127      1.0  0.84355  0.25150  0.83920  1.0000
  C   C128      1.0  0.86260  0.34460  0.83050  1.0000
  C   C129      1.0  0.85440  0.38240  0.75530  1.0000
  C   C130      1.0  0.87415  0.47140  0.75490  1.0000
  H   H68       1.0  0.86660  0.49620  0.70500  1.0000
  C   C131      1.0  0.90490  0.52320  0.82790  1.0000
  C   C132      1.0  0.91220  0.48780  0.90240  1.0000
  H   H69       1.0  0.93085  0.52290  0.95160  1.0000
  C   C133      1.0  0.89190  0.40020  0.90390  1.0000
  H   H70       1.0  0.89760  0.37670  0.95460  1.0000
  N   N25       1.0  0.69650  0.88210  0.82240  1.0000
  N   N26       1.0  0.81660  0.91020  0.96180  1.0000
  N   N27       1.0  0.78265  0.19220  0.79010  1.0000
  N   N28       1.0  0.88395  0.21530  0.90350  1.0000
  O   O19       1.0  0.81595  0.38470  0.59680  1.0000
  O   O20       1.0  0.88290  0.26790  0.65090  1.0000
  O   O21       1.0  0.72765  0.27180  0.65850  1.0000
  S   S7        1.0  0.81835  0.32106  0.65755  1.0000
  H   H71       1.0  0.59300  0.80600  0.74300  1.0000
  H   H72       1.0  0.65000  0.05500  0.67800  1.0000
  H   H73       1.0  0.88200  0.87900  0.07000  1.0000
  H   H74       1.0  0.97300  0.01100  0.12700  1.0000
  H   H75       1.0  0.95300  0.11700  0.04600  1.0000
  H   H76       1.0  0.91300  0.57900  0.82600  1.0000
  H   H77       1.0  0.74850  0.20900  0.74500  1.0000
  C   C134      1.0  0.58540  0.38920  0.60480  1.0000
  C   C135      1.0  0.59920  0.34640  0.81870  1.0000
  C   C136      1.0  0.63780  0.42530  0.86280  1.0000
  H   H78       1.0  0.64940  0.43020  0.92030  1.0000
  C   C137      1.0  0.65830  0.49510  0.82060  1.0000
  H   H79       1.0  0.68345  0.54860  0.84910  1.0000
  C   C138      1.0  0.64145  0.48640  0.73390  1.0000
  C   C139      1.0  0.60485  0.40680  0.69520  1.0000
  C   C140      1.0  0.64675  0.53770  0.59620  1.0000
  C   C141      1.0  0.66305  0.55220  0.68130  1.0000
  C   C142      1.0  0.71595  0.67530  0.62990  1.0000
  C   C143      1.0  0.75140  0.76280  0.61920  1.0000
  C   C144      1.0  0.71770  0.79720  0.54810  1.0000
  C   C145      1.0  0.75270  0.88070  0.53170  1.0000
  H   H80       1.0  0.72895  0.90220  0.48320  1.0000
  C   C146      1.0  0.82045  0.92940  0.58590  1.0000
  C   C147      1.0  0.85560  0.90050  0.65910  1.0000
  H   H81       1.0  0.90100  0.93710  0.69670  1.0000
  C   C148      1.0  0.82440  0.81760  0.67770  1.0000
  N   N29       1.0  0.55115  0.30750  0.57440  1.0000
  N   N30       1.0  0.58005  0.33410  0.73640  1.0000
  N   N31       1.0  0.67950  0.61500  0.56530  1.0000
  N   N32       1.0  0.70525  0.63810  0.69960  1.0000
  O   O22       1.0  0.81335  0.74950  0.81750  1.0000
  O   O23       1.0  0.91685  0.71010  0.73600  1.0000
  O   O24       1.0  0.94665  0.85260  0.81010  1.0000
  S   S8        1.0  0.88160  0.78063  0.76768  1.0000
  H   H82       1.0  0.73700  0.66800  0.74700  1.0000
  H   H83       1.0  0.55350  0.34100  0.39300  1.0000
  H   H84       1.0  0.59750  0.47300  0.43300  1.0000
  H   H85       1.0  0.56200  0.29600  0.84100  1.0000
  H   H86       1.0  0.66950  0.76200  0.51300  1.0000
  H   H87       1.0  0.84350  0.98100  0.58100  1.0000
  C   C149      1.0  0.53595  0.29050  0.49330  1.0000
  H   H88       1.0  0.51300  0.23400  0.47150  1.0000
  C   C150      1.0  0.55255  0.35300  0.43930  1.0000
  C   C151      1.0  0.58930  0.43660  0.46900  1.0000
  C   C152      1.0  0.60785  0.45590  0.55490  1.0000
  Cl  Cl9       1.0  0.89085  0.30300  0.14201  1.0000
  Cl  Cl10      1.0  0.71895  0.27882  0.99179  1.0000
  Cl  Cl11      1.0  0.97835  0.85655  0.22894  1.0000
  Cl  Cl12      1.0  0.99670  0.89064  0.42888  1.0000
  Cl  Cl13      1.0  0.60915  0.69700  0.85799  1.0000
  Cl  Cl14      1.0  0.78105  0.72118  0.00821  1.0000
  Cl  Cl15      1.0  0.52165  0.14345  0.77106  1.0000
  Cl  Cl16      1.0  0.50330  0.10936  0.57112  1.0000
  Cu  Cu5       1.0  0.96815  0.77722  0.33729  1.0000
  Cu  Cu6       1.0  0.53185  0.22278  0.66271  1.0000
  Cu  Cu7       1.0  0.73308  0.80025  0.90641  1.0000
  Cu  Cu8       1.0  0.76692  0.19975  0.09359  1.0000
