data_image0
_chemical_formula_structural       C3HCHC2HCH2CH2C3HNO6C3HCHC2HCH2CH2C3HNO6C3HCHC2HCH2CH2C3HNO6C3HCHC2HCH2CH2C3HNO12C3HCHC2HCH2CH2C3HNC3HCHC2HCH2CH2C3HNO6ZnNa4Zn5
_chemical_formula_sum              "C66 H48 N6 O36 Zn6 Na4"
_cell_length_a       14.7
_cell_length_b       14.7
_cell_length_c       13.252
_cell_angle_alpha    90
_cell_angle_beta     90
_cell_angle_gamma    120

_space_group_name_H-M_alt    "P 1"
_space_group_IT_number       1

loop_
  _space_group_symop_operation_xyz
  'x, y, z'

loop_
  _atom_site_type_symbol
  _atom_site_label
  _atom_site_symmetry_multiplicity
  _atom_site_fract_x
  _atom_site_fract_y
  _atom_site_fract_z
  _atom_site_occupancy
  C   C1        1.0  0.64550  0.11110  0.10860  1.0000
  C   C2        1.0  0.64110  0.08590  0.99690  1.0000
  C   C3        1.0  0.62520  0.99110  0.96400  1.0000
  H   H1        1.0  0.62200  0.94260  0.01100  1.0000
  C   C4        1.0  0.61350  0.96500  0.86300  1.0000
  H   H2        1.0  0.60370  0.90010  0.84280  1.0000
  C   C5        1.0  0.61650  0.03500  0.79180  1.0000
  C   C6        1.0  0.63220  0.13220  0.82500  1.0000
  H   H3        1.0  0.63350  0.18030  0.77860  1.0000
  C   C7        1.0  0.62410  0.92960  0.65310  1.0000
  H   H4        1.0  0.68330  0.93690  0.69210  1.0000
  H   H5        1.0  0.64670  0.94510  0.58330  1.0000
  C   C8        1.0  0.61620  0.09090  0.61540  1.0000
  H   H6        1.0  0.64120  0.07670  0.55290  1.0000
  H   H7        1.0  0.67160  0.15760  0.64110  1.0000
  C   C9        1.0  0.53700  0.81690  0.65940  1.0000
  C   C10       1.0  0.52250  0.10170  0.59230  1.0000
  C   C11       1.0  0.64560  0.15650  0.92510  1.0000
  H   H8        1.0  0.65820  0.22230  0.94570  1.0000
  N   N1        1.0  0.59780  0.00820  0.68870  1.0000
  O   O1        1.0  0.53780  0.18340  0.55170  1.0000
  O   O2        1.0  0.43120  0.02460  0.61110  1.0000
  O   O3        1.0  0.56430  0.74970  0.64580  1.0000
  O   O4        1.0  0.44500  0.79600  0.67790  1.0000
  O   O5        1.0  0.62120  0.04360  0.16970  1.0000
  O   O6        1.0  0.67590  0.20690  0.12770  1.0000
  C   C12       1.0  0.88890  0.53440  0.10860  1.0000
  C   C13       1.0  0.91410  0.55520  0.99690  1.0000
  C   C14       1.0  0.00890  0.63410  0.96400  1.0000
  H   H9        1.0  0.05740  0.67940  0.01100  1.0000
  C   C15       1.0  0.03500  0.64850  0.86300  1.0000
  H   H10       1.0  0.09990  0.70360  0.84280  1.0000
  C   C16       1.0  0.96500  0.58150  0.79180  1.0000
  C   C17       1.0  0.86780  0.50000  0.82500  1.0000
  H   H11       1.0  0.81970  0.45320  0.77860  1.0000
  C   C18       1.0  0.07040  0.69450  0.65310  1.0000
  H   H12       1.0  0.06310  0.74640  0.69210  1.0000
  H   H13       1.0  0.05490  0.70160  0.58330  1.0000
  C   C19       1.0  0.90910  0.52530  0.61540  1.0000
  H   H14       1.0  0.92330  0.56450  0.55290  1.0000
  H   H15       1.0  0.84240  0.51400  0.64110  1.0000
  C   C20       1.0  0.18310  0.72010  0.65940  1.0000
  C   C21       1.0  0.89830  0.42080  0.59230  1.0000
  C   C22       1.0  0.84350  0.48910  0.92510  1.0000
  H   H16       1.0  0.77770  0.43590  0.94570  1.0000
  N   N2        1.0  0.99180  0.58960  0.68870  1.0000
  O   O7        1.0  0.81660  0.35440  0.55170  1.0000
  O   O8        1.0  0.97540  0.40660  0.61110  1.0000
  O   O9        1.0  0.25030  0.81460  0.64580  1.0000
  O   O10       1.0  0.20400  0.64900  0.67790  1.0000
  O   O11       1.0  0.95640  0.57760  0.16970  1.0000
  O   O12       1.0  0.79310  0.46900  0.12770  1.0000
  C   C23       1.0  0.46560  0.35450  0.10860  1.0000
  C   C24       1.0  0.44480  0.35890  0.99690  1.0000
  C   C25       1.0  0.36590  0.37480  0.96400  1.0000
  H   H17       1.0  0.32060  0.37800  0.01100  1.0000
  C   C26       1.0  0.35150  0.38650  0.86300  1.0000
  H   H18       1.0  0.29640  0.39630  0.84280  1.0000
  C   C27       1.0  0.41850  0.38350  0.79180  1.0000
  C   C28       1.0  0.50000  0.36780  0.82500  1.0000
  H   H19       1.0  0.54680  0.36650  0.77860  1.0000
  C   C29       1.0  0.30550  0.37590  0.65310  1.0000
  H   H20       1.0  0.25360  0.31670  0.69210  1.0000
  H   H21       1.0  0.29840  0.35330  0.58330  1.0000
  C   C30       1.0  0.47470  0.38380  0.61540  1.0000
  H   H22       1.0  0.43550  0.35880  0.55290  1.0000
  H   H23       1.0  0.48600  0.32840  0.64110  1.0000
  C   C31       1.0  0.27990  0.46300  0.65940  1.0000
  C   C32       1.0  0.57920  0.47750  0.59230  1.0000
  C   C33       1.0  0.51090  0.35440  0.92510  1.0000
  H   H24       1.0  0.56410  0.34180  0.94570  1.0000
  N   N3        1.0  0.41040  0.40220  0.68870  1.0000
  O   O13       1.0  0.64560  0.46220  0.55170  1.0000
  O   O14       1.0  0.59340  0.56880  0.61110  1.0000
  O   O15       1.0  0.18540  0.43570  0.64580  1.0000
  O   O16       1.0  0.35100  0.55500  0.67790  1.0000
  O   O17       1.0  0.42240  0.37880  0.16970  1.0000
  O   O18       1.0  0.53100  0.32410  0.12770  1.0000
  C   C34       1.0  0.35450  0.88890  0.89140  1.0000
  C   C35       1.0  0.35890  0.91410  0.00310  1.0000
  C   C36       1.0  0.37480  0.00890  0.03600  1.0000
  H   H25       1.0  0.37800  0.05740  0.98900  1.0000
  C   C37       1.0  0.38650  0.03500  0.13700  1.0000
  H   H26       1.0  0.39630  0.09990  0.15720  1.0000
  C   C38       1.0  0.38350  0.96500  0.20820  1.0000
  C   C39       1.0  0.36780  0.86780  0.17500  1.0000
  H   H27       1.0  0.36650  0.81970  0.22140  1.0000
  C   C40       1.0  0.37590  0.07040  0.34690  1.0000
  H   H28       1.0  0.31670  0.06310  0.30790  1.0000
  H   H29       1.0  0.35330  0.05490  0.41670  1.0000
  C   C41       1.0  0.38380  0.90910  0.38460  1.0000
  H   H30       1.0  0.35880  0.92330  0.44710  1.0000
  H   H31       1.0  0.32840  0.84240  0.35890  1.0000
  C   C42       1.0  0.46300  0.18310  0.34060  1.0000
  C   C43       1.0  0.47750  0.89830  0.40770  1.0000
  C   C44       1.0  0.35440  0.84350  0.07490  1.0000
  H   H32       1.0  0.34180  0.77770  0.05430  1.0000
  N   N4        1.0  0.40220  0.99180  0.31130  1.0000
  O   O19       1.0  0.46220  0.81660  0.44830  1.0000
  O   O20       1.0  0.56880  0.97540  0.38890  1.0000
  O   O21       1.0  0.43570  0.25030  0.35420  1.0000
  O   O22       1.0  0.55500  0.20400  0.32210  1.0000
  O   O23       1.0  0.37880  0.95640  0.83030  1.0000
  O   O24       1.0  0.32410  0.79310  0.87230  1.0000
  O   O25       1.0  0.18340  0.64560  0.44830  1.0000
  O   O26       1.0  0.02460  0.59340  0.38890  1.0000
  O   O27       1.0  0.74970  0.18540  0.35420  1.0000
  O   O28       1.0  0.79600  0.35100  0.32210  1.0000
  O   O29       1.0  0.04360  0.42240  0.83030  1.0000
  O   O30       1.0  0.20690  0.53100  0.87230  1.0000
  C   C45       1.0  0.11110  0.46560  0.89140  1.0000
  C   C46       1.0  0.08590  0.44480  0.00310  1.0000
  C   C47       1.0  0.99110  0.36590  0.03600  1.0000
  H   H33       1.0  0.94260  0.32060  0.98900  1.0000
  C   C48       1.0  0.96500  0.35150  0.13700  1.0000
  H   H34       1.0  0.90010  0.29640  0.15720  1.0000
  C   C49       1.0  0.03500  0.41850  0.20820  1.0000
  C   C50       1.0  0.13220  0.50000  0.17500  1.0000
  H   H35       1.0  0.18030  0.54680  0.22140  1.0000
  C   C51       1.0  0.92960  0.30550  0.34690  1.0000
  H   H36       1.0  0.93690  0.25360  0.30790  1.0000
  H   H37       1.0  0.94510  0.29840  0.41670  1.0000
  C   C52       1.0  0.09090  0.47470  0.38460  1.0000
  H   H38       1.0  0.07670  0.43550  0.44710  1.0000
  H   H39       1.0  0.15760  0.48600  0.35890  1.0000
  C   C53       1.0  0.81690  0.27990  0.34060  1.0000
  C   C54       1.0  0.10170  0.57920  0.40770  1.0000
  C   C55       1.0  0.15650  0.51090  0.07490  1.0000
  H   H40       1.0  0.22230  0.56410  0.05430  1.0000
  N   N5        1.0  0.00820  0.41040  0.31130  1.0000
  C   C56       1.0  0.53440  0.64550  0.89140  1.0000
  C   C57       1.0  0.55520  0.64110  0.00310  1.0000
  C   C58       1.0  0.63410  0.62520  0.03600  1.0000
  H   H41       1.0  0.67940  0.62200  0.98900  1.0000
  C   C59       1.0  0.64850  0.61350  0.13700  1.0000
  H   H42       1.0  0.70360  0.60370  0.15720  1.0000
  C   C60       1.0  0.58150  0.61650  0.20820  1.0000
  C   C61       1.0  0.50000  0.63220  0.17500  1.0000
  H   H43       1.0  0.45320  0.63350  0.22140  1.0000
  C   C62       1.0  0.69450  0.62410  0.34690  1.0000
  H   H44       1.0  0.74640  0.68330  0.30790  1.0000
  H   H45       1.0  0.70160  0.64670  0.41670  1.0000
  C   C63       1.0  0.52530  0.61620  0.38460  1.0000
  H   H46       1.0  0.56450  0.64120  0.44710  1.0000
  H   H47       1.0  0.51400  0.67160  0.35890  1.0000
  C   C64       1.0  0.72010  0.53700  0.34060  1.0000
  C   C65       1.0  0.42080  0.52250  0.40770  1.0000
  C   C66       1.0  0.48910  0.64560  0.07490  1.0000
  H   H48       1.0  0.43590  0.65820  0.05430  1.0000
  N   N6        1.0  0.58960  0.59780  0.31130  1.0000
  O   O31       1.0  0.35440  0.53780  0.44830  1.0000
  O   O32       1.0  0.40660  0.43120  0.38890  1.0000
  O   O33       1.0  0.81460  0.56430  0.35420  1.0000
  O   O34       1.0  0.64900  0.44500  0.32210  1.0000
  O   O35       1.0  0.57760  0.62120  0.83030  1.0000
  O   O36       1.0  0.46900  0.67590  0.87230  1.0000
  Zn  Zn1       1.0  0.50447  0.60035  0.69725  1.0000
  Na  Na1       1.0  0.66667  0.33333  0.20040  1.0000
  Na  Na2       1.0  0.66667  0.33333  0.47300  1.0000
  Na  Na3       1.0  0.33333  0.66667  0.79960  1.0000
  Na  Na4       1.0  0.33333  0.66667  0.52700  1.0000
  Zn  Zn2       1.0  0.09588  0.49553  0.69725  1.0000
  Zn  Zn3       1.0  0.39965  0.90412  0.69725  1.0000
  Zn  Zn4       1.0  0.49553  0.39965  0.30275  1.0000
  Zn  Zn5       1.0  0.90412  0.50447  0.30275  1.0000
  Zn  Zn6       1.0  0.60035  0.09588  0.30275  1.0000
