data_image0
_chemical_formula_structural       O4C3HC3HCHC3HC2HCHCSO7C3HC3HCHC3HC2HCHCSO7C3HC3HCHC3HC2HCHCSO7C3HC3HCHC3HC2HCHCSO3CHC2HCHCSO7C3HC3HCHC2O4C3HC3HCHC3HC2HCHCSO7C3HC3HCHC3HC2HCHCSO7C3HC3HCHC3HC2HCHCSO3Gd4
_chemical_formula_sum              "O56 C112 H48 S8 Gd4"
_cell_length_a       14.1306
_cell_length_b       17.0415
_cell_length_c       22.636
_cell_angle_alpha    90
_cell_angle_beta     90
_cell_angle_gamma    90

_space_group_name_H-M_alt    "P 1"
_space_group_IT_number       1

loop_
  _space_group_symop_operation_xyz
  'x, y, z'

loop_
  _atom_site_type_symbol
  _atom_site_label
  _atom_site_symmetry_multiplicity
  _atom_site_fract_x
  _atom_site_fract_y
  _atom_site_fract_z
  _atom_site_occupancy
  O   O1        1.0  0.00580  0.64030  0.27713  1.0000
  O   O2        1.0  0.01630  0.74750  0.33050  1.0000
  O   O3        1.0  0.19910  0.32360  0.68969  1.0000
  O   O4        1.0  0.35290  0.34990  0.67998  1.0000
  C   C1        1.0  0.03520  0.67640  0.32150  1.0000
  C   C2        1.0  0.08840  0.63210  0.36880  1.0000
  C   C3        1.0  0.09580  0.55160  0.36380  1.0000
  H   H1        1.0  0.07394  0.52604  0.33018  1.0000
  C   C4        1.0  0.13690  0.50880  0.41030  1.0000
  C   C5        1.0  0.16920  0.54760  0.46100  1.0000
  C   C6        1.0  0.16750  0.62760  0.46280  1.0000
  H   H2        1.0  0.19529  0.65435  0.49410  1.0000
  C   C7        1.0  0.12470  0.66820  0.41800  1.0000
  H   H3        1.0  0.12000  0.72244  0.42109  1.0000
  C   C8        1.0  0.20240  0.49820  0.51380  1.0000
  C   C9        1.0  0.29290  0.49120  0.53210  1.0000
  C   C10       1.0  0.31320  0.44710  0.58020  1.0000
  H   H4        1.0  0.37610  0.44270  0.59190  1.0000
  C   C11       1.0  0.24510  0.40830  0.61290  1.0000
  C   C12       1.0  0.15400  0.41770  0.59470  1.0000
  H   H5        1.0  0.10497  0.39539  0.61643  1.0000
  C   C13       1.0  0.13410  0.45990  0.54460  1.0000
  H   H6        1.0  0.07189  0.46227  0.53127  1.0000
  C   C14       1.0  0.26760  0.35750  0.66430  1.0000
  S   S1        1.0  0.39310  0.55780  0.50860  1.0000
  O   O5        1.0  0.48080  0.53420  0.53890  1.0000
  O   O6        1.0  0.36640  0.63970  0.52240  1.0000
  O   O7        1.0  0.39400  0.54270  0.44490  1.0000
  O   O8        1.0  0.49420  0.85970  0.27713  1.0000
  O   O9        1.0  0.48370  0.75250  0.33050  1.0000
  O   O10       1.0  0.30090  0.17640  0.68969  1.0000
  O   O11       1.0  0.14710  0.15010  0.67998  1.0000
  C   C15       1.0  0.46480  0.82360  0.32150  1.0000
  C   C16       1.0  0.41160  0.86790  0.36880  1.0000
  C   C17       1.0  0.40420  0.94840  0.36380  1.0000
  H   H7        1.0  0.42606  0.97396  0.33018  1.0000
  C   C18       1.0  0.36310  0.99120  0.41030  1.0000
  C   C19       1.0  0.33080  0.95240  0.46100  1.0000
  C   C20       1.0  0.33250  0.87240  0.46280  1.0000
  H   H8        1.0  0.30471  0.84565  0.49410  1.0000
  C   C21       1.0  0.37530  0.83180  0.41800  1.0000
  H   H9        1.0  0.38000  0.77756  0.42109  1.0000
  C   C22       1.0  0.29760  0.00180  0.51380  1.0000
  C   C23       1.0  0.20710  0.00880  0.53210  1.0000
  C   C24       1.0  0.18680  0.05290  0.58020  1.0000
  H   H10       1.0  0.12390  0.05730  0.59190  1.0000
  C   C25       1.0  0.25490  0.09170  0.61290  1.0000
  C   C26       1.0  0.34600  0.08230  0.59470  1.0000
  H   H11       1.0  0.39503  0.10461  0.61643  1.0000
  C   C27       1.0  0.36590  0.04010  0.54460  1.0000
  H   H12       1.0  0.42811  0.03773  0.53127  1.0000
  C   C28       1.0  0.23240  0.14250  0.66430  1.0000
  S   S2        1.0  0.10690  0.94220  0.50860  1.0000
  O   O12       1.0  0.01920  0.96580  0.53890  1.0000
  O   O13       1.0  0.13360  0.86030  0.52240  1.0000
  O   O14       1.0  0.10600  0.95730  0.44490  1.0000
  O   O15       1.0  0.49420  0.64030  0.22287  1.0000
  O   O16       1.0  0.48370  0.74750  0.16950  1.0000
  O   O17       1.0  0.30090  0.32360  0.81031  1.0000
  O   O18       1.0  0.14710  0.34990  0.82002  1.0000
  C   C29       1.0  0.46480  0.67640  0.17850  1.0000
  C   C30       1.0  0.41160  0.63210  0.13120  1.0000
  C   C31       1.0  0.40420  0.55160  0.13620  1.0000
  H   H13       1.0  0.42606  0.52604  0.16982  1.0000
  C   C32       1.0  0.36310  0.50880  0.08970  1.0000
  C   C33       1.0  0.33080  0.54760  0.03900  1.0000
  C   C34       1.0  0.33250  0.62760  0.03720  1.0000
  H   H14       1.0  0.30471  0.65435  0.00590  1.0000
  C   C35       1.0  0.37530  0.66820  0.08200  1.0000
  H   H15       1.0  0.38000  0.72244  0.07891  1.0000
  C   C36       1.0  0.29760  0.49820  0.98620  1.0000
  C   C37       1.0  0.20710  0.49120  0.96790  1.0000
  C   C38       1.0  0.18680  0.44710  0.91980  1.0000
  H   H16       1.0  0.12390  0.44270  0.90810  1.0000
  C   C39       1.0  0.25490  0.40830  0.88710  1.0000
  C   C40       1.0  0.34600  0.41770  0.90530  1.0000
  H   H17       1.0  0.39503  0.39539  0.88357  1.0000
  C   C41       1.0  0.36590  0.45990  0.95540  1.0000
  H   H18       1.0  0.42811  0.46227  0.96873  1.0000
  C   C42       1.0  0.23240  0.35750  0.83570  1.0000
  S   S3        1.0  0.10690  0.55780  0.99140  1.0000
  O   O19       1.0  0.01920  0.53420  0.96110  1.0000
  O   O20       1.0  0.13360  0.63970  0.97760  1.0000
  O   O21       1.0  0.10600  0.54270  0.05510  1.0000
  O   O22       1.0  0.00580  0.85970  0.22287  1.0000
  O   O23       1.0  0.01630  0.75250  0.16950  1.0000
  O   O24       1.0  0.19910  0.17640  0.81031  1.0000
  O   O25       1.0  0.35290  0.15010  0.82002  1.0000
  C   C43       1.0  0.03520  0.82360  0.17850  1.0000
  C   C44       1.0  0.08840  0.86790  0.13120  1.0000
  C   C45       1.0  0.09580  0.94840  0.13620  1.0000
  H   H19       1.0  0.07394  0.97396  0.16982  1.0000
  C   C46       1.0  0.13690  0.99120  0.08970  1.0000
  C   C47       1.0  0.16920  0.95240  0.03900  1.0000
  C   C48       1.0  0.16750  0.87240  0.03720  1.0000
  H   H20       1.0  0.19529  0.84565  0.00590  1.0000
  C   C49       1.0  0.12470  0.83180  0.08200  1.0000
  H   H21       1.0  0.12000  0.77756  0.07891  1.0000
  C   C50       1.0  0.20240  0.00180  0.98620  1.0000
  C   C51       1.0  0.29290  0.00880  0.96790  1.0000
  C   C52       1.0  0.31320  0.05290  0.91980  1.0000
  H   H22       1.0  0.37610  0.05730  0.90810  1.0000
  C   C53       1.0  0.24510  0.09170  0.88710  1.0000
  C   C54       1.0  0.15400  0.08230  0.90530  1.0000
  H   H23       1.0  0.10497  0.10461  0.88357  1.0000
  C   C55       1.0  0.13410  0.04010  0.95540  1.0000
  H   H24       1.0  0.07189  0.03773  0.96873  1.0000
  C   C56       1.0  0.26760  0.14250  0.83570  1.0000
  S   S4        1.0  0.39310  0.94220  0.99140  1.0000
  O   O26       1.0  0.48080  0.96580  0.96110  1.0000
  O   O27       1.0  0.36640  0.86030  0.97760  1.0000
  O   O28       1.0  0.39400  0.95730  0.05510  1.0000
  C   C57       1.0  0.68680  0.55290  0.41980  1.0000
  H   H25       1.0  0.62390  0.55730  0.40810  1.0000
  C   C58       1.0  0.75490  0.59170  0.38710  1.0000
  C   C59       1.0  0.84600  0.58230  0.40530  1.0000
  H   H26       1.0  0.89503  0.60461  0.38357  1.0000
  C   C60       1.0  0.86590  0.54010  0.45540  1.0000
  H   H27       1.0  0.92811  0.53773  0.46873  1.0000
  C   C61       1.0  0.73240  0.64250  0.33570  1.0000
  S   S5        1.0  0.60690  0.44220  0.49140  1.0000
  O   O29       1.0  0.51920  0.46580  0.46110  1.0000
  O   O30       1.0  0.63360  0.36030  0.47760  1.0000
  O   O31       1.0  0.60600  0.45730  0.55510  1.0000
  O   O32       1.0  0.99420  0.35970  0.72287  1.0000
  O   O33       1.0  0.98370  0.25250  0.66950  1.0000
  O   O34       1.0  0.80090  0.67640  0.31031  1.0000
  O   O35       1.0  0.64710  0.65010  0.32002  1.0000
  C   C62       1.0  0.96480  0.32360  0.67850  1.0000
  C   C63       1.0  0.91160  0.36790  0.63120  1.0000
  C   C64       1.0  0.90420  0.44840  0.63620  1.0000
  H   H28       1.0  0.92606  0.47396  0.66982  1.0000
  C   C65       1.0  0.86310  0.49120  0.58970  1.0000
  C   C66       1.0  0.83080  0.45240  0.53900  1.0000
  C   C67       1.0  0.83250  0.37240  0.53720  1.0000
  H   H29       1.0  0.80471  0.34565  0.50590  1.0000
  C   C68       1.0  0.87530  0.33180  0.58200  1.0000
  H   H30       1.0  0.88000  0.27756  0.57891  1.0000
  C   C69       1.0  0.79760  0.50180  0.48620  1.0000
  C   C70       1.0  0.70710  0.50880  0.46790  1.0000
  O   O36       1.0  0.50580  0.14030  0.72287  1.0000
  O   O37       1.0  0.51630  0.24750  0.66950  1.0000
  O   O38       1.0  0.69910  0.82360  0.31031  1.0000
  O   O39       1.0  0.85290  0.84990  0.32002  1.0000
  C   C71       1.0  0.53520  0.17640  0.67850  1.0000
  C   C72       1.0  0.58840  0.13210  0.63120  1.0000
  C   C73       1.0  0.59580  0.05160  0.63620  1.0000
  H   H31       1.0  0.57394  0.02604  0.66982  1.0000
  C   C74       1.0  0.63690  0.00880  0.58970  1.0000
  C   C75       1.0  0.66920  0.04760  0.53900  1.0000
  C   C76       1.0  0.66750  0.12760  0.53720  1.0000
  H   H32       1.0  0.69529  0.15435  0.50590  1.0000
  C   C77       1.0  0.62470  0.16820  0.58200  1.0000
  H   H33       1.0  0.62000  0.22244  0.57891  1.0000
  C   C78       1.0  0.70240  0.99820  0.48620  1.0000
  C   C79       1.0  0.79290  0.99120  0.46790  1.0000
  C   C80       1.0  0.81320  0.94710  0.41980  1.0000
  H   H34       1.0  0.87610  0.94270  0.40810  1.0000
  C   C81       1.0  0.74510  0.90830  0.38710  1.0000
  C   C82       1.0  0.65400  0.91770  0.40530  1.0000
  H   H35       1.0  0.60497  0.89539  0.38357  1.0000
  C   C83       1.0  0.63410  0.95990  0.45540  1.0000
  H   H36       1.0  0.57189  0.96227  0.46873  1.0000
  C   C84       1.0  0.76760  0.85750  0.33570  1.0000
  S   S6        1.0  0.89310  0.05780  0.49140  1.0000
  O   O40       1.0  0.98080  0.03420  0.46110  1.0000
  O   O41       1.0  0.86640  0.13970  0.47760  1.0000
  O   O42       1.0  0.89400  0.04270  0.55510  1.0000
  O   O43       1.0  0.50580  0.35970  0.77713  1.0000
  O   O44       1.0  0.51630  0.25250  0.83050  1.0000
  O   O45       1.0  0.69910  0.67640  0.18969  1.0000
  O   O46       1.0  0.85290  0.65010  0.17998  1.0000
  C   C85       1.0  0.53520  0.32360  0.82150  1.0000
  C   C86       1.0  0.58840  0.36790  0.86880  1.0000
  C   C87       1.0  0.59580  0.44840  0.86380  1.0000
  H   H37       1.0  0.57394  0.47396  0.83018  1.0000
  C   C88       1.0  0.63690  0.49120  0.91030  1.0000
  C   C89       1.0  0.66920  0.45240  0.96100  1.0000
  C   C90       1.0  0.66750  0.37240  0.96280  1.0000
  H   H38       1.0  0.69529  0.34565  0.99410  1.0000
  C   C91       1.0  0.62470  0.33180  0.91800  1.0000
  H   H39       1.0  0.62000  0.27756  0.92109  1.0000
  C   C92       1.0  0.70240  0.50180  0.01380  1.0000
  C   C93       1.0  0.79290  0.50880  0.03210  1.0000
  C   C94       1.0  0.81320  0.55290  0.08020  1.0000
  H   H40       1.0  0.87610  0.55730  0.09190  1.0000
  C   C95       1.0  0.74510  0.59170  0.11290  1.0000
  C   C96       1.0  0.65400  0.58230  0.09470  1.0000
  H   H41       1.0  0.60497  0.60461  0.11643  1.0000
  C   C97       1.0  0.63410  0.54010  0.04460  1.0000
  H   H42       1.0  0.57189  0.53773  0.03127  1.0000
  C   C98       1.0  0.76760  0.64250  0.16430  1.0000
  S   S7        1.0  0.89310  0.44220  0.00860  1.0000
  O   O47       1.0  0.98080  0.46580  0.03890  1.0000
  O   O48       1.0  0.86640  0.36030  0.02240  1.0000
  O   O49       1.0  0.89400  0.45730  0.94490  1.0000
  O   O50       1.0  0.99420  0.14030  0.77713  1.0000
  O   O51       1.0  0.98370  0.24750  0.83050  1.0000
  O   O52       1.0  0.80090  0.82360  0.18969  1.0000
  O   O53       1.0  0.64710  0.84990  0.17998  1.0000
  C   C99       1.0  0.96480  0.17640  0.82150  1.0000
  C   C100      1.0  0.91160  0.13210  0.86880  1.0000
  C   C101      1.0  0.90420  0.05160  0.86380  1.0000
  H   H43       1.0  0.92606  0.02604  0.83018  1.0000
  C   C102      1.0  0.86310  0.00880  0.91030  1.0000
  C   C103      1.0  0.83080  0.04760  0.96100  1.0000
  C   C104      1.0  0.83250  0.12760  0.96280  1.0000
  H   H44       1.0  0.80471  0.15435  0.99410  1.0000
  C   C105      1.0  0.87530  0.16820  0.91800  1.0000
  H   H45       1.0  0.88000  0.22244  0.92109  1.0000
  C   C106      1.0  0.79760  0.99820  0.01380  1.0000
  C   C107      1.0  0.70710  0.99120  0.03210  1.0000
  C   C108      1.0  0.68680  0.94710  0.08020  1.0000
  H   H46       1.0  0.62390  0.94270  0.09190  1.0000
  C   C109      1.0  0.75490  0.90830  0.11290  1.0000
  C   C110      1.0  0.84600  0.91770  0.09470  1.0000
  H   H47       1.0  0.89503  0.89539  0.11643  1.0000
  C   C111      1.0  0.86590  0.95990  0.04460  1.0000
  H   H48       1.0  0.92811  0.96227  0.03127  1.0000
  C   C112      1.0  0.73240  0.85750  0.16430  1.0000
  S   S8        1.0  0.60690  0.05780  0.00860  1.0000
  O   O54       1.0  0.51920  0.03420  0.03890  1.0000
  O   O55       1.0  0.63360  0.13970  0.02240  1.0000
  O   O56       1.0  0.60600  0.04270  0.94490  1.0000
  Gd  Gd1       1.0  0.39845  0.25000  0.75000  1.0000
  Gd  Gd2       1.0  0.10155  0.25000  0.75000  1.0000
  Gd  Gd3       1.0  0.60155  0.75000  0.25000  1.0000
  Gd  Gd4       1.0  0.89845  0.75000  0.25000  1.0000
