data_image0
_chemical_formula_structural       O7PC3HC2HC2HCH2CO7PC3HC2HC2HCH2CO7PC3HC2HC2HCH2CO7PC3HC2HC2HCH2CEu4
_chemical_formula_sum              "O28 P4 C36 H20 Eu4"
_cell_length_a       10.0342
_cell_length_b       15.3556
_cell_length_c       9.2771
_cell_angle_alpha    90
_cell_angle_beta     90.549
_cell_angle_gamma    90

_space_group_name_H-M_alt    "P 1"
_space_group_IT_number       1

loop_
  _space_group_symop_operation_xyz
  'x, y, z'

loop_
  _atom_site_type_symbol
  _atom_site_label
  _atom_site_symmetry_multiplicity
  _atom_site_fract_x
  _atom_site_fract_y
  _atom_site_fract_z
  _atom_site_occupancy
  O   O1        1.0  0.05300  0.35680  0.20500  1.0000
  O   O2        1.0  0.01090  0.27950  0.39810  1.0000
  O   O3        1.0  0.06050  0.41520  0.87680  1.0000
  O   O4        1.0  0.18280  0.53600  0.90070  1.0000
  O   O5        1.0  0.22300  0.74150  0.38030  1.0000
  O   O6        1.0  0.25190  0.64520  0.16120  1.0000
  O   O7        1.0  0.44280  0.73770  0.25090  1.0000
  P   P1        1.0  0.31810  0.68670  0.29180  1.0000
  C   C1        1.0  0.05800  0.34630  0.34000  1.0000
  C   C2        1.0  0.12500  0.41330  0.43200  1.0000
  C   C3        1.0  0.09900  0.41210  0.58140  1.0000
  H   H1        1.0  0.03960  0.37070  0.62110  1.0000
  C   C4        1.0  0.16300  0.47270  0.66800  1.0000
  C   C5        1.0  0.25200  0.53420  0.60700  1.0000
  H   H2        1.0  0.29420  0.57590  0.66800  1.0000
  C   C6        1.0  0.27980  0.53520  0.46200  1.0000
  C   C7        1.0  0.21010  0.47350  0.37320  1.0000
  H   H3        1.0  0.22280  0.47420  0.27180  1.0000
  C   C8        1.0  0.37900  0.59680  0.40200  1.0000
  H   H4        1.0  0.44190  0.56270  0.34270  1.0000
  H   H5        1.0  0.43020  0.62170  0.48330  1.0000
  C   C9        1.0  0.13200  0.47670  0.82480  1.0000
  O   O8        1.0  0.94700  0.85680  0.29500  1.0000
  O   O9        1.0  0.98910  0.77950  0.10190  1.0000
  O   O10       1.0  0.93950  0.91520  0.62320  1.0000
  O   O11       1.0  0.81720  0.03600  0.59930  1.0000
  O   O12       1.0  0.77700  0.24150  0.11970  1.0000
  O   O13       1.0  0.74810  0.14520  0.33880  1.0000
  O   O14       1.0  0.55720  0.23770  0.24910  1.0000
  P   P2        1.0  0.68190  0.18670  0.20820  1.0000
  C   C10       1.0  0.94200  0.84630  0.16000  1.0000
  C   C11       1.0  0.87500  0.91330  0.06800  1.0000
  C   C12       1.0  0.90100  0.91210  0.91860  1.0000
  H   H6        1.0  0.96040  0.87070  0.87890  1.0000
  C   C13       1.0  0.83700  0.97270  0.83200  1.0000
  C   C14       1.0  0.74800  0.03420  0.89300  1.0000
  H   H7        1.0  0.70580  0.07590  0.83200  1.0000
  C   C15       1.0  0.72020  0.03520  0.03800  1.0000
  C   C16       1.0  0.78990  0.97350  0.12680  1.0000
  H   H8        1.0  0.77720  0.97420  0.22820  1.0000
  C   C17       1.0  0.62100  0.09680  0.09800  1.0000
  H   H9        1.0  0.55810  0.06270  0.15730  1.0000
  H   H10       1.0  0.56980  0.12170  0.01670  1.0000
  C   C18       1.0  0.86800  0.97670  0.67520  1.0000
  O   O15       1.0  0.94700  0.64320  0.79500  1.0000
  O   O16       1.0  0.98910  0.72050  0.60190  1.0000
  O   O17       1.0  0.93950  0.58480  0.12320  1.0000
  O   O18       1.0  0.81720  0.46400  0.09930  1.0000
  O   O19       1.0  0.77700  0.25850  0.61970  1.0000
  O   O20       1.0  0.74810  0.35480  0.83880  1.0000
  O   O21       1.0  0.55720  0.26230  0.74910  1.0000
  P   P3        1.0  0.68190  0.31330  0.70820  1.0000
  C   C19       1.0  0.94200  0.65370  0.66000  1.0000
  C   C20       1.0  0.87500  0.58670  0.56800  1.0000
  C   C21       1.0  0.90100  0.58790  0.41860  1.0000
  H   H11       1.0  0.96040  0.62930  0.37890  1.0000
  C   C22       1.0  0.83700  0.52730  0.33200  1.0000
  C   C23       1.0  0.74800  0.46580  0.39300  1.0000
  H   H12       1.0  0.70580  0.42410  0.33200  1.0000
  C   C24       1.0  0.72020  0.46480  0.53800  1.0000
  C   C25       1.0  0.78990  0.52650  0.62680  1.0000
  H   H13       1.0  0.77720  0.52580  0.72820  1.0000
  C   C26       1.0  0.62100  0.40320  0.59800  1.0000
  H   H14       1.0  0.55810  0.43730  0.65730  1.0000
  H   H15       1.0  0.56980  0.37830  0.51670  1.0000
  C   C27       1.0  0.86800  0.52330  0.17520  1.0000
  O   O22       1.0  0.05300  0.14320  0.70500  1.0000
  O   O23       1.0  0.01090  0.22050  0.89810  1.0000
  O   O24       1.0  0.06050  0.08480  0.37680  1.0000
  O   O25       1.0  0.18280  0.96400  0.40070  1.0000
  O   O26       1.0  0.22300  0.75850  0.88030  1.0000
  O   O27       1.0  0.25190  0.85480  0.66120  1.0000
  O   O28       1.0  0.44280  0.76230  0.75090  1.0000
  P   P4        1.0  0.31810  0.81330  0.79180  1.0000
  C   C28       1.0  0.05800  0.15370  0.84000  1.0000
  C   C29       1.0  0.12500  0.08670  0.93200  1.0000
  C   C30       1.0  0.09900  0.08790  0.08140  1.0000
  H   H16       1.0  0.03960  0.12930  0.12110  1.0000
  C   C31       1.0  0.16300  0.02730  0.16800  1.0000
  C   C32       1.0  0.25200  0.96580  0.10700  1.0000
  H   H17       1.0  0.29420  0.92410  0.16800  1.0000
  C   C33       1.0  0.27980  0.96480  0.96200  1.0000
  C   C34       1.0  0.21010  0.02650  0.87320  1.0000
  H   H18       1.0  0.22280  0.02580  0.77180  1.0000
  C   C35       1.0  0.37900  0.90320  0.90200  1.0000
  H   H19       1.0  0.44190  0.93730  0.84270  1.0000
  H   H20       1.0  0.43020  0.87830  0.98330  1.0000
  C   C36       1.0  0.13200  0.02330  0.32480  1.0000
  Eu  Eu1       1.0  0.90699  0.33666  0.00507  1.0000
  Eu  Eu2       1.0  0.90699  0.16334  0.50507  1.0000
  Eu  Eu3       1.0  0.09301  0.66334  0.99493  1.0000
  Eu  Eu4       1.0  0.09301  0.83666  0.49493  1.0000
