data_image0
_chemical_formula_structural       CH2CH2CH2CH2CHCH2CNO5P2CH2CH2CH2CH2CHCH2CNO5C2O6COCOCOCO6C2O3COCO2CO2COEr6
_chemical_formula_sum              "C26 H22 N2 O34 P2 Er6"
_cell_length_a       10.7984
_cell_length_b       12.0726
_cell_length_c       14.4123
_cell_angle_alpha    93.451
_cell_angle_beta     102.587
_cell_angle_gamma    112.715

_space_group_name_H-M_alt    "P 1"
_space_group_IT_number       1

loop_
  _space_group_symop_operation_xyz
  'x, y, z'

loop_
  _atom_site_type_symbol
  _atom_site_label
  _atom_site_symmetry_multiplicity
  _atom_site_fract_x
  _atom_site_fract_y
  _atom_site_fract_z
  _atom_site_occupancy
  C   C1        1.0  0.88440  0.11230  0.16230  1.0000
  H   H1        1.0  0.94310  0.11250  0.12000  1.0000
  H   H2        1.0  0.87910  0.19080  0.16670  1.0000
  C   C2        1.0  0.87020  0.10170  0.33280  1.0000
  H   H3        1.0  0.77680  0.03830  0.30940  1.0000
  H   H4        1.0  0.86370  0.17970  0.33700  1.0000
  C   C3        1.0  0.93740  0.08480  0.43150  1.0000
  H   H5        1.0  0.88230  0.08680  0.47600  1.0000
  H   H6        1.0  0.94490  0.00720  0.42800  1.0000
  C   C4        1.0  0.07760  0.18630  0.46420  1.0000
  H   H7        1.0  0.12340  0.17660  0.52700  1.0000
  H   H8        1.0  0.06650  0.26200  0.47190  1.0000
  C   C5        1.0  0.17160  0.19670  0.39810  1.0000
  H   H9        1.0  0.19580  0.12650  0.39450  1.0000
  C   C6        1.0  0.09630  0.21090  0.29600  1.0000
  H   H10       1.0  0.08120  0.28500  0.29950  1.0000
  H   H11       1.0  0.15140  0.21330  0.25060  1.0000
  C   C7        1.0  0.30540  0.32020  0.42590  1.0000
  N   N1        1.0  0.95420  0.09630  0.26470  1.0000
  O   O1        1.0  0.70680  0.99630  0.00180  1.0000
  O   O2        1.0  0.60870  0.03140  0.13920  1.0000
  O   O3        1.0  0.70870  0.88340  0.14520  1.0000
  O   O4        1.0  0.40220  0.30880  0.40480  1.0000
  O   O5        1.0  0.30760  0.41720  0.46240  1.0000
  P   P1        1.0  0.71370  0.99650  0.10997  1.0000
  P   P2        1.0  0.28630  0.00350  0.89003  1.0000
  C   C8        1.0  0.11560  0.88770  0.83770  1.0000
  H   H12       1.0  0.05690  0.88750  0.88000  1.0000
  H   H13       1.0  0.12090  0.80920  0.83330  1.0000
  C   C9        1.0  0.12980  0.89830  0.66720  1.0000
  H   H14       1.0  0.22320  0.96170  0.69060  1.0000
  H   H15       1.0  0.13630  0.82030  0.66300  1.0000
  C   C10       1.0  0.06260  0.91520  0.56850  1.0000
  H   H16       1.0  0.11770  0.91320  0.52400  1.0000
  H   H17       1.0  0.05510  0.99280  0.57200  1.0000
  C   C11       1.0  0.92240  0.81370  0.53580  1.0000
  H   H18       1.0  0.87660  0.82340  0.47300  1.0000
  H   H19       1.0  0.93350  0.73800  0.52810  1.0000
  C   C12       1.0  0.82840  0.80330  0.60190  1.0000
  H   H20       1.0  0.80420  0.87350  0.60550  1.0000
  C   C13       1.0  0.90370  0.78910  0.70400  1.0000
  H   H21       1.0  0.91880  0.71500  0.70050  1.0000
  H   H22       1.0  0.84860  0.78670  0.74940  1.0000
  C   C14       1.0  0.69460  0.67980  0.57410  1.0000
  N   N2        1.0  0.04580  0.90370  0.73530  1.0000
  O   O6        1.0  0.29320  0.00370  0.99820  1.0000
  O   O7        1.0  0.39130  0.96860  0.86080  1.0000
  O   O8        1.0  0.29130  0.11660  0.85480  1.0000
  O   O9        1.0  0.59780  0.69120  0.59520  1.0000
  O   O10       1.0  0.69240  0.58280  0.53760  1.0000
  C   C15       1.0  0.36710  0.39450  0.71530  1.0000
  C   C16       1.0  0.22860  0.40580  0.69900  1.0000
  O   O11       1.0  0.38920  0.33010  0.77460  1.0000
  O   O12       1.0  0.43500  0.45650  0.65700  1.0000
  O   O13       1.0  0.16650  0.45940  0.63710  1.0000
  O   O14       1.0  0.15460  0.35150  0.74890  1.0000
  O   O15       1.0  0.06160  0.31280  0.92650  1.0000
  O   O16       1.0  0.02120  0.11720  0.81010  1.0000
  C   C17       1.0  0.94250  0.22850  0.89800  1.0000
  O   O17       1.0  0.83470  0.22790  0.92600  1.0000
  C   C18       1.0  0.91860  0.12300  0.83140  1.0000
  O   O18       1.0  0.79470  0.04200  0.80260  1.0000
  C   C19       1.0  0.46900  0.86370  0.67310  1.0000
  O   O19       1.0  0.55850  0.84870  0.83290  1.0000
  C   C20       1.0  0.49140  0.79070  0.75310  1.0000
  O   O20       1.0  0.51270  0.97730  0.69560  1.0000
  O   O21       1.0  0.39700  0.80320  0.59120  1.0000
  O   O22       1.0  0.43450  0.67670  0.72900  1.0000
  O   O23       1.0  0.56500  0.54350  0.34300  1.0000
  O   O24       1.0  0.83350  0.54060  0.36290  1.0000
  O   O25       1.0  0.84540  0.64850  0.25110  1.0000
  C   C21       1.0  0.63290  0.60550  0.28470  1.0000
  C   C22       1.0  0.77140  0.59420  0.30100  1.0000
  O   O26       1.0  0.61080  0.66990  0.22540  1.0000
  O   O27       1.0  0.93840  0.68720  0.07350  1.0000
  O   O28       1.0  0.97880  0.88280  0.18990  1.0000
  C   C23       1.0  0.05750  0.77150  0.10200  1.0000
  O   O29       1.0  0.16530  0.77210  0.07400  1.0000
  C   C24       1.0  0.08140  0.87700  0.16860  1.0000
  O   O30       1.0  0.20530  0.95800  0.19740  1.0000
  O   O31       1.0  0.48730  0.02270  0.30440  1.0000
  C   C25       1.0  0.50860  0.20930  0.24690  1.0000
  O   O32       1.0  0.56550  0.32330  0.27100  1.0000
  O   O33       1.0  0.60300  0.19680  0.40880  1.0000
  C   C26       1.0  0.53100  0.13630  0.32690  1.0000
  O   O34       1.0  0.44150  0.15130  0.16710  1.0000
  Er  Er1       1.0  0.24524  0.28074  0.88284  1.0000
  Er  Er2       1.0  0.62046  0.05705  0.86781  1.0000
  Er  Er3       1.0  0.36459  0.59278  0.56691  1.0000
  Er  Er4       1.0  0.75476  0.71926  0.11716  1.0000
  Er  Er5       1.0  0.37954  0.94295  0.13219  1.0000
  Er  Er6       1.0  0.63541  0.40722  0.43309  1.0000
