data_image0
_chemical_formula_structural       C2HC2HC2HC2SO7C2HC2HC2HC2SO7C2HC2HC2HC2SO7C2HC2HC2HC2SO7Ho4
_chemical_formula_sum              "C32 H12 S4 O28 Ho4"
_cell_length_a       9.4135
_cell_length_b       10.5485
_cell_length_c       17.0809
_cell_angle_alpha    90
_cell_angle_beta     101.273
_cell_angle_gamma    90

_space_group_name_H-M_alt    "P 1"
_space_group_IT_number       1

loop_
  _space_group_symop_operation_xyz
  'x, y, z'

loop_
  _atom_site_type_symbol
  _atom_site_label
  _atom_site_symmetry_multiplicity
  _atom_site_fract_x
  _atom_site_fract_y
  _atom_site_fract_z
  _atom_site_occupancy
  C   C1        1.0  0.45700  0.45800  0.12063  1.0000
  C   C2        1.0  0.43340  0.35740  0.06751  1.0000
  H   H1        1.0  0.49079  0.28521  0.07736  1.0000
  C   C3        1.0  0.32450  0.36360  0.99953  1.0000
  C   C4        1.0  0.23400  0.46910  0.98591  1.0000
  H   H2        1.0  0.16100  0.47371  0.94063  1.0000
  C   C5        1.0  0.25470  0.56690  0.04104  1.0000
  C   C6        1.0  0.36700  0.56350  0.10760  1.0000
  H   H3        1.0  0.38152  0.63135  0.14306  1.0000
  C   C7        1.0  0.57830  0.45380  0.19185  1.0000
  C   C8        1.0  0.30860  0.25590  0.94190  1.0000
  S   S1        1.0  0.14042  0.70190  0.03057  1.0000
  O   O1        1.0  0.60360  0.54890  0.23700  1.0000
  O   O2        1.0  0.65360  0.35370  0.20721  1.0000
  O   O3        1.0  0.35660  0.14700  0.96537  1.0000
  O   O4        1.0  0.24960  0.27360  0.86989  1.0000
  O   O5        1.0  0.07520  0.70600  0.10058  1.0000
  O   O6        1.0  0.23530  0.81150  0.02679  1.0000
  O   O7        1.0  0.03600  0.68470  0.95612  1.0000
  C   C9        1.0  0.04300  0.95800  0.37937  1.0000
  C   C10       1.0  0.06660  0.85740  0.43249  1.0000
  H   H4        1.0  0.00921  0.78521  0.42264  1.0000
  C   C11       1.0  0.17550  0.86360  0.50047  1.0000
  C   C12       1.0  0.26600  0.96910  0.51409  1.0000
  H   H5        1.0  0.33900  0.97371  0.55937  1.0000
  C   C13       1.0  0.24530  0.06690  0.45896  1.0000
  C   C14       1.0  0.13300  0.06350  0.39240  1.0000
  H   H6        1.0  0.11848  0.13135  0.35694  1.0000
  C   C15       1.0  0.92170  0.95380  0.30815  1.0000
  C   C16       1.0  0.19140  0.75590  0.55810  1.0000
  S   S2        1.0  0.35958  0.20190  0.46943  1.0000
  O   O8        1.0  0.89640  0.04890  0.26300  1.0000
  O   O9        1.0  0.84640  0.85370  0.29279  1.0000
  O   O10       1.0  0.14340  0.64700  0.53463  1.0000
  O   O11       1.0  0.25040  0.77360  0.63011  1.0000
  O   O12       1.0  0.42480  0.20600  0.39942  1.0000
  O   O13       1.0  0.26470  0.31150  0.47321  1.0000
  O   O14       1.0  0.46400  0.18470  0.54388  1.0000
  C   C17       1.0  0.54300  0.54200  0.87937  1.0000
  C   C18       1.0  0.56660  0.64260  0.93249  1.0000
  H   H7        1.0  0.50921  0.71479  0.92264  1.0000
  C   C19       1.0  0.67550  0.63640  0.00047  1.0000
  C   C20       1.0  0.76600  0.53090  0.01409  1.0000
  H   H8        1.0  0.83900  0.52629  0.05937  1.0000
  C   C21       1.0  0.74530  0.43310  0.95896  1.0000
  C   C22       1.0  0.63300  0.43650  0.89240  1.0000
  H   H9        1.0  0.61848  0.36865  0.85694  1.0000
  C   C23       1.0  0.42170  0.54620  0.80815  1.0000
  C   C24       1.0  0.69140  0.74410  0.05810  1.0000
  S   S3        1.0  0.85958  0.29810  0.96943  1.0000
  O   O15       1.0  0.39640  0.45110  0.76300  1.0000
  O   O16       1.0  0.34640  0.64630  0.79279  1.0000
  O   O17       1.0  0.64340  0.85300  0.03463  1.0000
  O   O18       1.0  0.75040  0.72640  0.13011  1.0000
  O   O19       1.0  0.92480  0.29400  0.89942  1.0000
  O   O20       1.0  0.76470  0.18850  0.97321  1.0000
  O   O21       1.0  0.96400  0.31530  0.04388  1.0000
  C   C25       1.0  0.95700  0.04200  0.62063  1.0000
  C   C26       1.0  0.93340  0.14260  0.56751  1.0000
  H   H10       1.0  0.99079  0.21479  0.57736  1.0000
  C   C27       1.0  0.82450  0.13640  0.49953  1.0000
  C   C28       1.0  0.73400  0.03090  0.48591  1.0000
  H   H11       1.0  0.66100  0.02629  0.44063  1.0000
  C   C29       1.0  0.75470  0.93310  0.54104  1.0000
  C   C30       1.0  0.86700  0.93650  0.60760  1.0000
  H   H12       1.0  0.88152  0.86865  0.64306  1.0000
  C   C31       1.0  0.07830  0.04620  0.69185  1.0000
  C   C32       1.0  0.80860  0.24410  0.44190  1.0000
  S   S4        1.0  0.64042  0.79810  0.53057  1.0000
  O   O22       1.0  0.10360  0.95110  0.73700  1.0000
  O   O23       1.0  0.15360  0.14630  0.70721  1.0000
  O   O24       1.0  0.85660  0.35300  0.46537  1.0000
  O   O25       1.0  0.74960  0.22640  0.36989  1.0000
  O   O26       1.0  0.57520  0.79400  0.60058  1.0000
  O   O27       1.0  0.73530  0.68850  0.52679  1.0000
  O   O28       1.0  0.53600  0.81530  0.45612  1.0000
  Ho  Ho1       1.0  0.79757  0.44018  0.32903  1.0000
  Ho  Ho2       1.0  0.29757  0.05982  0.82903  1.0000
  Ho  Ho3       1.0  0.70243  0.94018  0.17097  1.0000
  Ho  Ho4       1.0  0.20243  0.55982  0.67097  1.0000
