data_image0
_chemical_formula_structural       O7NCHC3HC3HC3HC3HCHO7NCHC3HC3HC3HC3HCHOHOHNi4
_chemical_formula_sum              "O16 N2 C28 H14 Ni4"
_cell_length_a       8.9744
_cell_length_b       11.0999
_cell_length_c       11.1627
_cell_angle_alpha    79.842
_cell_angle_beta     84.411
_cell_angle_gamma    80.144

_space_group_name_H-M_alt    "P 1"
_space_group_IT_number       1

loop_
  _space_group_symop_operation_xyz
  'x, y, z'

loop_
  _atom_site_type_symbol
  _atom_site_label
  _atom_site_symmetry_multiplicity
  _atom_site_fract_x
  _atom_site_fract_y
  _atom_site_fract_z
  _atom_site_occupancy
  O   O1        1.0  0.79140  0.24245  0.26610  1.0000
  O   O2        1.0  0.83750  0.29305  0.44389  1.0000
  O   O3        1.0  0.02870  0.02986  0.19670  1.0000
  O   O4        1.0  0.52860  0.64009  0.04364  1.0000
  O   O5        1.0  0.15130  0.87470  0.32707  1.0000
  O   O6        1.0  0.89630  0.74460  0.42430  1.0000
  O   O7        1.0  0.80720  0.87398  0.26079  1.0000
  N   N1        1.0  0.27510  0.90050  0.90120  1.0000
  C   C1        1.0  0.38710  0.80380  0.92080  1.0000
  H   H1        1.0  0.44513  0.77483  0.85282  1.0000
  C   C2        1.0  0.42050  0.74480  0.03750  1.0000
  C   C3        1.0  0.12760  0.93460  0.22240  1.0000
  C   C4        1.0  0.67470  0.70200  0.18690  1.0000
  H   H2        1.0  0.64898  0.78666  0.15185  1.0000
  C   C5        1.0  0.79710  0.31780  0.33630  1.0000
  C   C6        1.0  0.22560  0.88890  0.11780  1.0000
  C   C7        1.0  0.19970  0.94400  0.99780  1.0000
  H   H3        1.0  0.12499  0.01588  0.98416  1.0000
  C   C8        1.0  0.61880  0.61130  0.14280  1.0000
  C   C9        1.0  0.82940  0.76990  0.32760  1.0000
  C   C10       1.0  0.80650  0.54410  0.33350  1.0000
  H   H4        1.0  0.86892  0.52096  0.40045  1.0000
  C   C11       1.0  0.76910  0.66850  0.28330  1.0000
  C   C12       1.0  0.75220  0.45380  0.28570  1.0000
  C   C13       1.0  0.33720  0.78480  0.13740  1.0000
  H   H5        1.0  0.35542  0.74250  0.21756  1.0000
  C   C14       1.0  0.65800  0.48750  0.18910  1.0000
  H   H6        1.0  0.62136  0.42603  0.15579  1.0000
  O   O8        1.0  0.20860  0.75755  0.73390  1.0000
  O   O9        1.0  0.16250  0.70695  0.55611  1.0000
  O   O10       1.0  0.97130  0.97014  0.80330  1.0000
  O   O11       1.0  0.47140  0.35991  0.95636  1.0000
  O   O12       1.0  0.84870  0.12530  0.67293  1.0000
  O   O13       1.0  0.10370  0.25540  0.57570  1.0000
  O   O14       1.0  0.19280  0.12602  0.73921  1.0000
  N   N2        1.0  0.72490  0.09950  0.09880  1.0000
  C   C15       1.0  0.61290  0.19620  0.07920  1.0000
  H   H7        1.0  0.55487  0.22517  0.14718  1.0000
  C   C16       1.0  0.57950  0.25520  0.96250  1.0000
  C   C17       1.0  0.87240  0.06540  0.77760  1.0000
  C   C18       1.0  0.32530  0.29800  0.81310  1.0000
  H   H8        1.0  0.35102  0.21334  0.84815  1.0000
  C   C19       1.0  0.20290  0.68220  0.66370  1.0000
  C   C20       1.0  0.77440  0.11110  0.88220  1.0000
  C   C21       1.0  0.80030  0.05600  0.00220  1.0000
  H   H9        1.0  0.87501  0.98412  0.01584  1.0000
  C   C22       1.0  0.38120  0.38870  0.85720  1.0000
  C   C23       1.0  0.17060  0.23010  0.67240  1.0000
  C   C24       1.0  0.19350  0.45590  0.66650  1.0000
  H   H10       1.0  0.13108  0.47904  0.59955  1.0000
  C   C25       1.0  0.23090  0.33150  0.71670  1.0000
  C   C26       1.0  0.24780  0.54620  0.71430  1.0000
  C   C27       1.0  0.66280  0.21520  0.86260  1.0000
  H   H11       1.0  0.64458  0.25750  0.78244  1.0000
  C   C28       1.0  0.34200  0.51250  0.81090  1.0000
  H   H12       1.0  0.37864  0.57397  0.84421  1.0000
  O   O15       1.0  0.87170  0.02098  0.44373  1.0000
  H   H13       1.0  0.77790  0.01404  0.49907  1.0000
  O   O16       1.0  0.12830  0.97902  0.55627  1.0000
  H   H14       1.0  0.22210  0.98596  0.50093  1.0000
  Ni  Ni1       1.0  0.80432  0.05353  0.27469  1.0000
  Ni  Ni2       1.0  0.01527  0.86053  0.48972  1.0000
  Ni  Ni3       1.0  0.19568  0.94647  0.72531  1.0000
  Ni  Ni4       1.0  0.98473  0.13947  0.51028  1.0000
