data_image0
_chemical_formula_structural       O8CHC2HC2HC8HCHCHCO8CHC2HC2HC8HCHCHC2HC2HC2HC8HCHCHCO16CHC2HC2HC8HCHCHCSr8
_chemical_formula_sum              "O32 C64 H24 Sr8"
_cell_length_a       13.6876
_cell_length_b       10.4272
_cell_length_c       15.0005
_cell_angle_alpha    90
_cell_angle_beta     100.256
_cell_angle_gamma    90

_space_group_name_H-M_alt    "P 1"
_space_group_IT_number       1

loop_
  _space_group_symop_operation_xyz
  'x, y, z'

loop_
  _atom_site_type_symbol
  _atom_site_label
  _atom_site_symmetry_multiplicity
  _atom_site_fract_x
  _atom_site_fract_y
  _atom_site_fract_z
  _atom_site_occupancy
  O   O1        1.0  0.07210  0.47200  0.44300  1.0000
  O   O2        1.0  0.22360  0.41930  0.51040  1.0000
  O   O3        1.0  0.44830  0.34810  0.43960  1.0000
  O   O4        1.0  0.51180  0.16900  0.39230  1.0000
  O   O5        1.0  0.00490  0.16150  0.39870  1.0000
  O   O6        1.0  0.04900  0.17870  0.26340  1.0000
  O   O7        1.0  0.40350  0.23330  0.17490  1.0000
  O   O8        1.0  0.28430  0.09960  0.20070  1.0000
  C   C1        1.0  0.16840  0.52620  0.29030  1.0000
  H   H1        1.0  0.13150  0.59480  0.30600  1.0000
  C   C2        1.0  0.18880  0.42250  0.34890  1.0000
  C   C3        1.0  0.20270  0.52800  0.20880  1.0000
  H   H2        1.0  0.18930  0.59750  0.16970  1.0000
  C   C4        1.0  0.24080  0.31670  0.32510  1.0000
  C   C5        1.0  0.25670  0.42570  0.18680  1.0000
  H   H3        1.0  0.28220  0.42810  0.13340  1.0000
  C   C6        1.0  0.27400  0.31990  0.24180  1.0000
  C   C7        1.0  0.32500  0.20940  0.20580  1.0000
  C   C8        1.0  0.25450  0.19830  0.38210  1.0000
  C   C9        1.0  0.44310  0.23130  0.41700  1.0000
  C   C10       1.0  0.34960  0.15680  0.42360  1.0000
  C   C11       1.0  0.17170  0.12300  0.39270  1.0000
  C   C12       1.0  0.06880  0.15680  0.34750  1.0000
  C   C13       1.0  0.18450  0.01120  0.44170  1.0000
  H   H4        1.0  0.12930  0.96290  0.44880  1.0000
  C   C14       1.0  0.35980  0.04180  0.47070  1.0000
  H   H5        1.0  0.42280  0.01290  0.49620  1.0000
  C   C15       1.0  0.27800  0.96940  0.48050  1.0000
  H   H6        1.0  0.28590  0.89300  0.51300  1.0000
  C   C16       1.0  0.15990  0.43790  0.44080  1.0000
  O   O9        1.0  0.92790  0.97200  0.05700  1.0000
  O   O10       1.0  0.77640  0.91930  0.98960  1.0000
  O   O11       1.0  0.55170  0.84810  0.06040  1.0000
  O   O12       1.0  0.48820  0.66900  0.10770  1.0000
  O   O13       1.0  0.99510  0.66150  0.10130  1.0000
  O   O14       1.0  0.95100  0.67870  0.23660  1.0000
  O   O15       1.0  0.59650  0.73330  0.32510  1.0000
  O   O16       1.0  0.71570  0.59960  0.29930  1.0000
  C   C17       1.0  0.83160  0.02620  0.20970  1.0000
  H   H7        1.0  0.86850  0.09480  0.19400  1.0000
  C   C18       1.0  0.81120  0.92250  0.15110  1.0000
  C   C19       1.0  0.79730  0.02800  0.29120  1.0000
  H   H8        1.0  0.81070  0.09750  0.33030  1.0000
  C   C20       1.0  0.75920  0.81670  0.17490  1.0000
  C   C21       1.0  0.74330  0.92570  0.31320  1.0000
  H   H9        1.0  0.71780  0.92810  0.36660  1.0000
  C   C22       1.0  0.72600  0.81990  0.25820  1.0000
  C   C23       1.0  0.67500  0.70940  0.29420  1.0000
  C   C24       1.0  0.74550  0.69830  0.11790  1.0000
  C   C25       1.0  0.55690  0.73130  0.08300  1.0000
  C   C26       1.0  0.65040  0.65680  0.07640  1.0000
  C   C27       1.0  0.82830  0.62300  0.10730  1.0000
  C   C28       1.0  0.93120  0.65680  0.15250  1.0000
  C   C29       1.0  0.81550  0.51120  0.05830  1.0000
  H   H10       1.0  0.87070  0.46290  0.05120  1.0000
  C   C30       1.0  0.64020  0.54180  0.02930  1.0000
  H   H11       1.0  0.57720  0.51290  0.00380  1.0000
  C   C31       1.0  0.72200  0.46940  0.01950  1.0000
  H   H12       1.0  0.71410  0.39300  0.98700  1.0000
  C   C32       1.0  0.84010  0.93790  0.05920  1.0000
  C   C33       1.0  0.83160  0.47380  0.70970  1.0000
  H   H13       1.0  0.86850  0.40520  0.69400  1.0000
  C   C34       1.0  0.81120  0.57750  0.65110  1.0000
  C   C35       1.0  0.79730  0.47200  0.79120  1.0000
  H   H14       1.0  0.81070  0.40250  0.83030  1.0000
  C   C36       1.0  0.75920  0.68330  0.67490  1.0000
  C   C37       1.0  0.74330  0.57430  0.81320  1.0000
  H   H15       1.0  0.71780  0.57190  0.86660  1.0000
  C   C38       1.0  0.72600  0.68010  0.75820  1.0000
  C   C39       1.0  0.67500  0.79060  0.79420  1.0000
  C   C40       1.0  0.74550  0.80170  0.61790  1.0000
  C   C41       1.0  0.55690  0.76870  0.58300  1.0000
  C   C42       1.0  0.65040  0.84320  0.57640  1.0000
  C   C43       1.0  0.82830  0.87700  0.60730  1.0000
  C   C44       1.0  0.93120  0.84320  0.65250  1.0000
  C   C45       1.0  0.81550  0.98880  0.55830  1.0000
  H   H16       1.0  0.87070  0.03710  0.55120  1.0000
  C   C46       1.0  0.64020  0.95820  0.52930  1.0000
  H   H17       1.0  0.57720  0.98710  0.50380  1.0000
  C   C47       1.0  0.72200  0.03060  0.51950  1.0000
  H   H18       1.0  0.71410  0.10700  0.48700  1.0000
  C   C48       1.0  0.84010  0.56210  0.55920  1.0000
  O   O17       1.0  0.92790  0.52800  0.55700  1.0000
  O   O18       1.0  0.77640  0.58070  0.48960  1.0000
  O   O19       1.0  0.55170  0.65190  0.56040  1.0000
  O   O20       1.0  0.48820  0.83100  0.60770  1.0000
  O   O21       1.0  0.99510  0.83850  0.60130  1.0000
  O   O22       1.0  0.95100  0.82130  0.73660  1.0000
  O   O23       1.0  0.59650  0.76670  0.82510  1.0000
  O   O24       1.0  0.71570  0.90040  0.79930  1.0000
  O   O25       1.0  0.07210  0.02800  0.94300  1.0000
  O   O26       1.0  0.22360  0.08070  0.01040  1.0000
  O   O27       1.0  0.44830  0.15190  0.93960  1.0000
  O   O28       1.0  0.51180  0.33100  0.89230  1.0000
  O   O29       1.0  0.00490  0.33850  0.89870  1.0000
  O   O30       1.0  0.04900  0.32130  0.76340  1.0000
  O   O31       1.0  0.40350  0.26670  0.67490  1.0000
  O   O32       1.0  0.28430  0.40040  0.70070  1.0000
  C   C49       1.0  0.16840  0.97380  0.79030  1.0000
  H   H19       1.0  0.13150  0.90520  0.80600  1.0000
  C   C50       1.0  0.18880  0.07750  0.84890  1.0000
  C   C51       1.0  0.20270  0.97200  0.70880  1.0000
  H   H20       1.0  0.18930  0.90250  0.66970  1.0000
  C   C52       1.0  0.24080  0.18330  0.82510  1.0000
  C   C53       1.0  0.25670  0.07430  0.68680  1.0000
  H   H21       1.0  0.28220  0.07190  0.63340  1.0000
  C   C54       1.0  0.27400  0.18010  0.74180  1.0000
  C   C55       1.0  0.32500  0.29060  0.70580  1.0000
  C   C56       1.0  0.25450  0.30170  0.88210  1.0000
  C   C57       1.0  0.44310  0.26870  0.91700  1.0000
  C   C58       1.0  0.34960  0.34320  0.92360  1.0000
  C   C59       1.0  0.17170  0.37700  0.89270  1.0000
  C   C60       1.0  0.06880  0.34320  0.84750  1.0000
  C   C61       1.0  0.18450  0.48880  0.94170  1.0000
  H   H22       1.0  0.12930  0.53710  0.94880  1.0000
  C   C62       1.0  0.35980  0.45820  0.97070  1.0000
  H   H23       1.0  0.42280  0.48710  0.99620  1.0000
  C   C63       1.0  0.27800  0.53060  0.98050  1.0000
  H   H24       1.0  0.28590  0.60700  0.01300  1.0000
  C   C64       1.0  0.15990  0.06210  0.94080  1.0000
  Sr  Sr1       1.0  0.10322  0.04723  0.13163  1.0000
  Sr  Sr2       1.0  0.41162  0.02750  0.08423  1.0000
  Sr  Sr3       1.0  0.89678  0.95277  0.86837  1.0000
  Sr  Sr4       1.0  0.58838  0.97250  0.91577  1.0000
  Sr  Sr5       1.0  0.89678  0.54723  0.36837  1.0000
  Sr  Sr6       1.0  0.58838  0.52750  0.41577  1.0000
  Sr  Sr7       1.0  0.10322  0.45277  0.63163  1.0000
  Sr  Sr8       1.0  0.41162  0.47250  0.58423  1.0000
