data_image0
_chemical_formula_structural       S4C2HCHCHSC2HCHCHSC2HCHCHSC2HCHCHSF4O4CH3C15H3CH3S4C2HCHCHSC2HCHCHSC2HCHCHSC2HCHCHSF4O4CH3C14S4C2HCHCHSC2HCHCHSC2HCHCHSC2HCHCHSF4O4CH3C15H3C5H3S4C2HCHCHSC2HCHCHSC2HCHCHSC2HCHCHSF4O4CH3C10
_chemical_formula_sum              "S32 C128 H72 F16 O16"
_cell_length_a       18.134
_cell_length_b       10.7534
_cell_length_c       20.059
_cell_angle_alpha    90
_cell_angle_beta     117.509
_cell_angle_gamma    90

_space_group_name_H-M_alt    "P 1"
_space_group_IT_number       1

loop_
  _space_group_symop_operation_xyz
  'x, y, z'

loop_
  _atom_site_type_symbol
  _atom_site_label
  _atom_site_symmetry_multiplicity
  _atom_site_fract_x
  _atom_site_fract_y
  _atom_site_fract_z
  _atom_site_occupancy
  S   S1        1.0  0.10697  0.48010  0.58660  1.0000
  S   S2        1.0  0.50777  0.45339  0.75995  1.0000
  S   S3        1.0  0.22005  0.03861  0.68814  1.0000
  S   S4        1.0  0.17770  0.59293  0.46421  1.0000
  C   C1        1.0  0.13180  0.41250  0.67410  1.0000
  C   C2        1.0  0.20090  0.34960  0.71960  1.0000
  H   H1        1.0  0.24186  0.32929  0.70576  1.0000
  C   C3        1.0  0.20670  0.31700  0.79070  1.0000
  H   H2        1.0  0.25249  0.28397  0.83211  1.0000
  C   C4        1.0  0.13180  0.34270  0.78490  1.0000
  H   H3        1.0  0.11928  0.32202  0.82355  1.0000
  S   S5        1.0  0.05810  0.41610  0.70390  1.0000
  C   C5        1.0  0.47530  0.38770  0.82131  1.0000
  C   C6        1.0  0.47760  0.44250  0.88320  1.0000
  H   H4        1.0  0.48923  0.52647  0.89399  1.0000
  C   C7        1.0  0.46100  0.36070  0.92980  1.0000
  H   H5        1.0  0.46386  0.38290  0.97576  1.0000
  C   C8        1.0  0.44070  0.24820  0.89940  1.0000
  H   H6        1.0  0.42439  0.18324  0.92026  1.0000
  S   S6        1.0  0.44784  0.23640  0.81723  1.0000
  C   C9        1.0  0.22000  0.10450  0.60800  1.0000
  C   C10       1.0  0.15160  0.14560  0.54550  1.0000
  H   H7        1.0  0.09724  0.13345  0.53716  1.0000
  C   C11       1.0  0.17310  0.21000  0.49400  1.0000
  H   H8        1.0  0.13656  0.25636  0.45285  1.0000
  C   C12       1.0  0.25310  0.19290  0.51410  1.0000
  H   H9        1.0  0.27714  0.21648  0.48392  1.0000
  S   S7        1.0  0.30937  0.12330  0.60110  1.0000
  C   C13       1.0  0.21570  0.70910  0.42667  1.0000
  C   C14       1.0  0.18980  0.72340  0.35210  1.0000
  H   H10       1.0  0.15508  0.66855  0.31508  1.0000
  C   C15       1.0  0.22390  0.83600  0.33820  1.0000
  H   H11       1.0  0.21196  0.86356  0.29038  1.0000
  C   C16       1.0  0.27330  0.89550  0.40000  1.0000
  H   H12       1.0  0.30087  0.96886  0.40071  1.0000
  S   S8        1.0  0.28136  0.82300  0.47906  1.0000
  F   F1        1.0  0.01136  0.68330  0.61159  1.0000
  F   F2        1.0  0.31587  0.83642  0.66179  1.0000
  F   F3        1.0  0.36171  0.60276  0.74836  1.0000
  F   F4        1.0  0.32387  0.44927  0.47768  1.0000
  O   O1        1.0  0.03820  0.93310  0.70570  1.0000
  O   O2        1.0  0.01009  0.00000  0.59184  1.0000
  O   O3        1.0  0.45563  0.26640  0.58060  1.0000
  O   O4        1.0  0.53614  0.43380  0.61909  1.0000
  C   C17       1.0  0.95120  0.08930  0.59380  1.0000
  H   H13       1.0  0.92782  0.13684  0.54810  1.0000
  H   H14       1.0  0.97920  0.14412  0.63585  1.0000
  H   H15       1.0  0.90761  0.04613  0.59865  1.0000
  C   C18       1.0  0.04840  0.93070  0.65150  1.0000
  C   C19       1.0  0.10900  0.84350  0.64330  1.0000
  C   C20       1.0  0.08747  0.72130  0.62320  1.0000
  C   C21       1.0  0.13975  0.63580  0.61452  1.0000
  C   C22       1.0  0.21794  0.67680  0.62647  1.0000
  C   C23       1.0  0.23957  0.79850  0.64832  1.0000
  C   C24       1.0  0.18750  0.88450  0.65696  1.0000
  C   C25       1.0  0.27893  0.59410  0.61783  1.0000
  C   C26       1.0  0.35132  0.56110  0.68115  1.0000
  C   C27       1.0  0.41387  0.48910  0.67902  1.0000
  C   C28       1.0  0.40303  0.45160  0.60841  1.0000
  C   C29       1.0  0.33168  0.48560  0.54500  1.0000
  C   C30       1.0  0.26881  0.55530  0.54747  1.0000
  C   C31       1.0  0.46710  0.37170  0.60094  1.0000
  C   C32       1.0  0.60610  0.36200  0.62220  1.0000
  H   H16       1.0  0.59200  0.32929  0.57322  1.0000
  H   H17       1.0  0.61839  0.29458  0.65713  1.0000
  H   H18       1.0  0.65398  0.41484  0.63828  1.0000
  C   C33       1.0  0.39390  0.86200  0.87780  1.0000
  H   H19       1.0  0.40800  0.82929  0.92678  1.0000
  H   H20       1.0  0.38161  0.79458  0.84287  1.0000
  H   H21       1.0  0.34602  0.91484  0.86172  1.0000
  S   S9        1.0  0.89303  0.98010  0.91340  1.0000
  S   S10       1.0  0.49223  0.95339  0.74005  1.0000
  S   S11       1.0  0.77995  0.53861  0.81186  1.0000
  S   S12       1.0  0.82230  0.09293  0.03579  1.0000
  C   C34       1.0  0.86820  0.91250  0.82590  1.0000
  C   C35       1.0  0.79910  0.84960  0.78040  1.0000
  H   H22       1.0  0.75814  0.82929  0.79424  1.0000
  C   C36       1.0  0.79330  0.81700  0.70930  1.0000
  H   H23       1.0  0.74751  0.78397  0.66789  1.0000
  C   C37       1.0  0.86820  0.84270  0.71510  1.0000
  H   H24       1.0  0.88072  0.82202  0.67645  1.0000
  S   S13       1.0  0.94190  0.91610  0.79610  1.0000
  C   C38       1.0  0.52470  0.88770  0.67869  1.0000
  C   C39       1.0  0.52240  0.94250  0.61680  1.0000
  H   H25       1.0  0.51077  0.02647  0.60601  1.0000
  C   C40       1.0  0.53900  0.86070  0.57020  1.0000
  H   H26       1.0  0.53614  0.88290  0.52424  1.0000
  C   C41       1.0  0.55930  0.74820  0.60060  1.0000
  H   H27       1.0  0.57561  0.68324  0.57974  1.0000
  S   S14       1.0  0.55216  0.73640  0.68277  1.0000
  C   C42       1.0  0.78000  0.60450  0.89200  1.0000
  C   C43       1.0  0.84840  0.64560  0.95450  1.0000
  H   H28       1.0  0.90276  0.63345  0.96284  1.0000
  C   C44       1.0  0.82690  0.71000  0.00600  1.0000
  H   H29       1.0  0.86344  0.75636  0.04715  1.0000
  C   C45       1.0  0.74690  0.69290  0.98590  1.0000
  H   H30       1.0  0.72286  0.71648  0.01608  1.0000
  S   S15       1.0  0.69063  0.62330  0.89890  1.0000
  C   C46       1.0  0.78430  0.20910  0.07333  1.0000
  C   C47       1.0  0.81020  0.22340  0.14790  1.0000
  H   H31       1.0  0.84492  0.16855  0.18492  1.0000
  C   C48       1.0  0.77610  0.33600  0.16180  1.0000
  H   H32       1.0  0.78804  0.36356  0.20962  1.0000
  C   C49       1.0  0.72670  0.39550  0.10000  1.0000
  H   H33       1.0  0.69913  0.46886  0.09929  1.0000
  S   S16       1.0  0.71864  0.32300  0.02094  1.0000
  F   F5        1.0  0.98864  0.18330  0.88841  1.0000
  F   F6        1.0  0.68413  0.33642  0.83821  1.0000
  F   F7        1.0  0.63829  0.10276  0.75164  1.0000
  F   F8        1.0  0.67613  0.94927  0.02232  1.0000
  O   O5        1.0  0.96180  0.43310  0.79430  1.0000
  O   O6        1.0  0.98991  0.50000  0.90816  1.0000
  O   O7        1.0  0.54437  0.76640  0.91940  1.0000
  O   O8        1.0  0.46386  0.93380  0.88091  1.0000
  C   C50       1.0  0.04880  0.58930  0.90620  1.0000
  H   H34       1.0  0.07218  0.63684  0.95190  1.0000
  H   H35       1.0  0.02080  0.64412  0.86415  1.0000
  H   H36       1.0  0.09239  0.54613  0.90135  1.0000
  C   C51       1.0  0.95160  0.43070  0.84850  1.0000
  C   C52       1.0  0.89100  0.34350  0.85670  1.0000
  C   C53       1.0  0.91253  0.22130  0.87680  1.0000
  C   C54       1.0  0.86025  0.13580  0.88548  1.0000
  C   C55       1.0  0.78206  0.17680  0.87353  1.0000
  C   C56       1.0  0.76043  0.29850  0.85168  1.0000
  C   C57       1.0  0.81250  0.38450  0.84304  1.0000
  C   C58       1.0  0.72107  0.09410  0.88217  1.0000
  C   C59       1.0  0.64868  0.06110  0.81885  1.0000
  C   C60       1.0  0.58613  0.98910  0.82098  1.0000
  C   C61       1.0  0.59697  0.95160  0.89159  1.0000
  C   C62       1.0  0.66832  0.98560  0.95500  1.0000
  C   C63       1.0  0.73119  0.05530  0.95253  1.0000
  C   C64       1.0  0.53290  0.87170  0.89906  1.0000
  S   S17       1.0  0.89303  0.51990  0.41340  1.0000
  S   S18       1.0  0.49223  0.54661  0.24005  1.0000
  S   S19       1.0  0.77995  0.96139  0.31186  1.0000
  S   S20       1.0  0.82230  0.40707  0.53579  1.0000
  C   C65       1.0  0.86820  0.58750  0.32590  1.0000
  C   C66       1.0  0.79910  0.65040  0.28040  1.0000
  H   H37       1.0  0.75814  0.67071  0.29424  1.0000
  C   C67       1.0  0.79330  0.68300  0.20930  1.0000
  H   H38       1.0  0.74751  0.71603  0.16789  1.0000
  C   C68       1.0  0.86820  0.65730  0.21510  1.0000
  H   H39       1.0  0.88072  0.67798  0.17645  1.0000
  S   S21       1.0  0.94190  0.58390  0.29610  1.0000
  C   C69       1.0  0.52470  0.61230  0.17869  1.0000
  C   C70       1.0  0.52240  0.55750  0.11680  1.0000
  H   H40       1.0  0.51077  0.47353  0.10601  1.0000
  C   C71       1.0  0.53900  0.63930  0.07020  1.0000
  H   H41       1.0  0.53614  0.61710  0.02424  1.0000
  C   C72       1.0  0.55930  0.75180  0.10060  1.0000
  H   H42       1.0  0.57561  0.81676  0.07974  1.0000
  S   S22       1.0  0.55216  0.76360  0.18277  1.0000
  C   C73       1.0  0.78000  0.89550  0.39200  1.0000
  C   C74       1.0  0.84840  0.85440  0.45450  1.0000
  H   H43       1.0  0.90276  0.86655  0.46284  1.0000
  C   C75       1.0  0.82690  0.79000  0.50600  1.0000
  H   H44       1.0  0.86344  0.74364  0.54715  1.0000
  C   C76       1.0  0.74690  0.80710  0.48590  1.0000
  H   H45       1.0  0.72286  0.78352  0.51608  1.0000
  S   S23       1.0  0.69063  0.87670  0.39890  1.0000
  C   C77       1.0  0.78430  0.29090  0.57333  1.0000
  C   C78       1.0  0.81020  0.27660  0.64790  1.0000
  H   H46       1.0  0.84492  0.33145  0.68492  1.0000
  C   C79       1.0  0.77610  0.16400  0.66180  1.0000
  H   H47       1.0  0.78804  0.13644  0.70962  1.0000
  C   C80       1.0  0.72670  0.10450  0.60000  1.0000
  H   H48       1.0  0.69913  0.03114  0.59929  1.0000
  S   S24       1.0  0.71864  0.17700  0.52094  1.0000
  F   F9        1.0  0.98864  0.31670  0.38841  1.0000
  F   F10       1.0  0.68413  0.16358  0.33821  1.0000
  F   F11       1.0  0.63829  0.39724  0.25164  1.0000
  F   F12       1.0  0.67613  0.55073  0.52232  1.0000
  O   O9        1.0  0.96180  0.06690  0.29430  1.0000
  O   O10       1.0  0.98991  0.00000  0.40816  1.0000
  O   O11       1.0  0.54437  0.73360  0.41940  1.0000
  O   O12       1.0  0.46386  0.56620  0.38091  1.0000
  C   C81       1.0  0.04880  0.91070  0.40620  1.0000
  H   H49       1.0  0.07218  0.86316  0.45190  1.0000
  H   H50       1.0  0.02080  0.85588  0.36415  1.0000
  H   H51       1.0  0.09239  0.95387  0.40135  1.0000
  C   C82       1.0  0.95160  0.06930  0.34850  1.0000
  C   C83       1.0  0.89100  0.15650  0.35670  1.0000
  C   C84       1.0  0.91253  0.27870  0.37680  1.0000
  C   C85       1.0  0.86025  0.36420  0.38548  1.0000
  C   C86       1.0  0.78206  0.32320  0.37353  1.0000
  C   C87       1.0  0.76043  0.20150  0.35168  1.0000
  C   C88       1.0  0.81250  0.11550  0.34304  1.0000
  C   C89       1.0  0.72107  0.40590  0.38217  1.0000
  C   C90       1.0  0.64868  0.43890  0.31885  1.0000
  C   C91       1.0  0.58613  0.51090  0.32098  1.0000
  C   C92       1.0  0.59697  0.54840  0.39159  1.0000
  C   C93       1.0  0.66832  0.51440  0.45500  1.0000
  C   C94       1.0  0.73119  0.44470  0.45253  1.0000
  C   C95       1.0  0.53290  0.62830  0.39906  1.0000
  C   C96       1.0  0.39390  0.63800  0.37780  1.0000
  H   H52       1.0  0.40800  0.67071  0.42678  1.0000
  H   H53       1.0  0.38161  0.70542  0.34287  1.0000
  H   H54       1.0  0.34602  0.58516  0.36172  1.0000
  C   C97       1.0  0.40303  0.04840  0.10841  1.0000
  C   C98       1.0  0.33168  0.01440  0.04500  1.0000
  C   C99       1.0  0.26881  0.94470  0.04747  1.0000
  C   C100      1.0  0.46710  0.12830  0.10094  1.0000
  C   C101      1.0  0.60610  0.13800  0.12220  1.0000
  H   H55       1.0  0.59200  0.17071  0.07322  1.0000
  H   H56       1.0  0.61839  0.20542  0.15713  1.0000
  H   H57       1.0  0.65398  0.08516  0.13828  1.0000
  S   S25       1.0  0.10697  0.01990  0.08660  1.0000
  S   S26       1.0  0.50777  0.04661  0.25995  1.0000
  S   S27       1.0  0.22005  0.46139  0.18814  1.0000
  S   S28       1.0  0.17770  0.90707  0.96421  1.0000
  C   C102      1.0  0.13180  0.08750  0.17410  1.0000
  C   C103      1.0  0.20090  0.15040  0.21960  1.0000
  H   H58       1.0  0.24186  0.17071  0.20576  1.0000
  C   C104      1.0  0.20670  0.18300  0.29070  1.0000
  H   H59       1.0  0.25249  0.21603  0.33211  1.0000
  C   C105      1.0  0.13180  0.15730  0.28490  1.0000
  H   H60       1.0  0.11928  0.17798  0.32355  1.0000
  S   S29       1.0  0.05810  0.08390  0.20390  1.0000
  C   C106      1.0  0.47530  0.11230  0.32131  1.0000
  C   C107      1.0  0.47760  0.05750  0.38320  1.0000
  H   H61       1.0  0.48923  0.97353  0.39399  1.0000
  C   C108      1.0  0.46100  0.13930  0.42980  1.0000
  H   H62       1.0  0.46386  0.11710  0.47576  1.0000
  C   C109      1.0  0.44070  0.25180  0.39940  1.0000
  H   H63       1.0  0.42439  0.31676  0.42026  1.0000
  S   S30       1.0  0.44784  0.26360  0.31723  1.0000
  C   C110      1.0  0.22000  0.39550  0.10800  1.0000
  C   C111      1.0  0.15160  0.35440  0.04550  1.0000
  H   H64       1.0  0.09724  0.36655  0.03716  1.0000
  C   C112      1.0  0.17310  0.29000  0.99400  1.0000
  H   H65       1.0  0.13656  0.24364  0.95285  1.0000
  C   C113      1.0  0.25310  0.30710  0.01410  1.0000
  H   H66       1.0  0.27714  0.28352  0.98392  1.0000
  S   S31       1.0  0.30937  0.37670  0.10110  1.0000
  C   C114      1.0  0.21570  0.79090  0.92667  1.0000
  C   C115      1.0  0.18980  0.77660  0.85210  1.0000
  H   H67       1.0  0.15508  0.83145  0.81508  1.0000
  C   C116      1.0  0.22390  0.66400  0.83820  1.0000
  H   H68       1.0  0.21196  0.63644  0.79038  1.0000
  C   C117      1.0  0.27330  0.60450  0.90000  1.0000
  H   H69       1.0  0.30087  0.53114  0.90071  1.0000
  S   S32       1.0  0.28136  0.67700  0.97906  1.0000
  F   F13       1.0  0.01136  0.81670  0.11159  1.0000
  F   F14       1.0  0.31587  0.66358  0.16179  1.0000
  F   F15       1.0  0.36171  0.89724  0.24836  1.0000
  F   F16       1.0  0.32387  0.05073  0.97768  1.0000
  O   O13       1.0  0.03820  0.56690  0.20570  1.0000
  O   O14       1.0  0.01009  0.50000  0.09184  1.0000
  O   O15       1.0  0.45563  0.23360  0.08060  1.0000
  O   O16       1.0  0.53614  0.06620  0.11909  1.0000
  C   C118      1.0  0.95120  0.41070  0.09380  1.0000
  H   H70       1.0  0.92782  0.36316  0.04810  1.0000
  H   H71       1.0  0.97920  0.35588  0.13585  1.0000
  H   H72       1.0  0.90761  0.45387  0.09865  1.0000
  C   C119      1.0  0.04840  0.56930  0.15150  1.0000
  C   C120      1.0  0.10900  0.65650  0.14330  1.0000
  C   C121      1.0  0.08747  0.77870  0.12320  1.0000
  C   C122      1.0  0.13975  0.86420  0.11452  1.0000
  C   C123      1.0  0.21794  0.82320  0.12647  1.0000
  C   C124      1.0  0.23957  0.70150  0.14832  1.0000
  C   C125      1.0  0.18750  0.61550  0.15696  1.0000
  C   C126      1.0  0.27893  0.90590  0.11783  1.0000
  C   C127      1.0  0.35132  0.93890  0.18115  1.0000
  C   C128      1.0  0.41387  0.01090  0.17902  1.0000
