data_image0
_chemical_formula_structural       C2HC3HC2H2CH2CH2CH2P4O12C2HC3HC2H2CH2CH2CH2P4O12C2HC3HC2H2CH2CH2CH2P4O12C2H2CH2CH2CH2P4O12C2HC3HLa4C2HC3HC2H2CH2CH2CH2P4O12C2HC3HC2H2CH2CH2CH2P4O12C2HC3HC2H2CH2CH2CH2P4O12C2H2CH2CH2CH2P4O12C2HC3HLa4
_chemical_formula_sum              "C80 H80 P32 O96 La8"
_cell_length_a       12.0602
_cell_length_b       18.347
_cell_length_c       19.0401
_cell_angle_alpha    90
_cell_angle_beta     95.541
_cell_angle_gamma    90

_space_group_name_H-M_alt    "P 1"
_space_group_IT_number       1

loop_
  _space_group_symop_operation_xyz
  'x, y, z'

loop_
  _atom_site_type_symbol
  _atom_site_label
  _atom_site_symmetry_multiplicity
  _atom_site_fract_x
  _atom_site_fract_y
  _atom_site_fract_z
  _atom_site_occupancy
  C   C1        1.0  0.10890  0.74810  0.70210  1.0000
  C   C2        1.0  0.02935  0.69420  0.68620  1.0000
  H   H1        1.0  0.46450  0.70630  0.65610  1.0000
  C   C3        1.0  0.04015  0.62330  0.71210  1.0000
  C   C4        1.0  0.13390  0.60560  0.75710  1.0000
  C   C5        1.0  0.21205  0.65940  0.77370  1.0000
  H   H2        1.0  0.27595  0.64750  0.80470  1.0000
  C   C6        1.0  0.20225  0.73010  0.74740  1.0000
  C   C7        1.0  0.09230  0.82200  0.66800  1.0000
  H   H3        1.0  0.12745  0.85960  0.70010  1.0000
  H   H4        1.0  0.01160  0.83270  0.66030  1.0000
  C   C8        1.0  0.45140  0.56750  0.68630  1.0000
  H   H5        1.0  0.37765  0.59160  0.68020  1.0000
  H   H6        1.0  0.44840  0.52860  0.72210  1.0000
  C   C9        1.0  0.15325  0.53020  0.78910  1.0000
  H   H7        1.0  0.23425  0.52000  0.79460  1.0000
  H   H8        1.0  0.11735  0.49340  0.75620  1.0000
  C   C10       1.0  0.29595  0.78370  0.77140  1.0000
  H   H9        1.0  0.36515  0.75570  0.78400  1.0000
  H   H10       1.0  0.30905  0.81580  0.73120  1.0000
  P   P1        1.0  0.09920  0.52072  0.87363  1.0000
  P   P2        1.0  0.48105  0.52738  0.60359  1.0000
  P   P3        1.0  0.26970  0.83947  0.84471  1.0000
  P   P4        1.0  0.15160  0.82605  0.58503  1.0000
  O   O1        1.0  0.14070  0.58270  0.92090  1.0000
  O   O2        1.0  0.47000  0.52830  0.85450  1.0000
  O   O3        1.0  0.12635  0.44680  0.90400  1.0000
  O   O4        1.0  0.46260  0.58360  0.54600  1.0000
  O   O5        1.0  0.41475  0.45730  0.59270  1.0000
  O   O6        1.0  0.10940  0.50660  0.61200  1.0000
  O   O7        1.0  0.38185  0.86630  0.87930  1.0000
  O   O8        1.0  0.20260  0.90670  0.81150  1.0000
  O   O9        1.0  0.20120  0.80180  0.89600  1.0000
  O   O10       1.0  0.28050  0.82960  0.60050  1.0000
  O   O11       1.0  0.12065  0.76050  0.54140  1.0000
  O   O12       1.0  0.11005  0.89880  0.55050  1.0000
  C   C11       1.0  0.39110  0.24810  0.79790  1.0000
  C   C12       1.0  0.47065  0.19420  0.81380  1.0000
  H   H11       1.0  0.03550  0.20630  0.84390  1.0000
  C   C13       1.0  0.45985  0.12330  0.78790  1.0000
  C   C14       1.0  0.36610  0.10560  0.74290  1.0000
  C   C15       1.0  0.28795  0.15940  0.72630  1.0000
  H   H12       1.0  0.22405  0.14750  0.69530  1.0000
  C   C16       1.0  0.29775  0.23010  0.75260  1.0000
  C   C17       1.0  0.40770  0.32200  0.83200  1.0000
  H   H13       1.0  0.37255  0.35960  0.79990  1.0000
  H   H14       1.0  0.48840  0.33270  0.83970  1.0000
  C   C18       1.0  0.04860  0.06750  0.81370  1.0000
  H   H15       1.0  0.12235  0.09160  0.81980  1.0000
  H   H16       1.0  0.05160  0.02860  0.77790  1.0000
  C   C19       1.0  0.34675  0.03020  0.71090  1.0000
  H   H17       1.0  0.26575  0.02000  0.70540  1.0000
  H   H18       1.0  0.38265  0.99340  0.74380  1.0000
  C   C20       1.0  0.20405  0.28370  0.72860  1.0000
  H   H19       1.0  0.13485  0.25570  0.71600  1.0000
  H   H20       1.0  0.19095  0.31580  0.76880  1.0000
  P   P5        1.0  0.40080  0.02072  0.62637  1.0000
  P   P6        1.0  0.01895  0.02738  0.89641  1.0000
  P   P7        1.0  0.23030  0.33947  0.65529  1.0000
  P   P8        1.0  0.34840  0.32605  0.91497  1.0000
  O   O13       1.0  0.35930  0.08270  0.57910  1.0000
  O   O14       1.0  0.03000  0.02830  0.64550  1.0000
  O   O15       1.0  0.37365  0.94680  0.59600  1.0000
  O   O16       1.0  0.03740  0.08360  0.95400  1.0000
  O   O17       1.0  0.08525  0.95730  0.90730  1.0000
  O   O18       1.0  0.39060  0.00660  0.88800  1.0000
  O   O19       1.0  0.11815  0.36630  0.62070  1.0000
  O   O20       1.0  0.29740  0.40670  0.68850  1.0000
  O   O21       1.0  0.29880  0.30180  0.60400  1.0000
  O   O22       1.0  0.21950  0.32960  0.89950  1.0000
  O   O23       1.0  0.37935  0.26050  0.95860  1.0000
  O   O24       1.0  0.38995  0.39880  0.94950  1.0000
  C   C21       1.0  0.39110  0.25190  0.29790  1.0000
  C   C22       1.0  0.47065  0.30580  0.31380  1.0000
  H   H21       1.0  0.03550  0.29370  0.34390  1.0000
  C   C23       1.0  0.45985  0.37670  0.28790  1.0000
  C   C24       1.0  0.36610  0.39440  0.24290  1.0000
  C   C25       1.0  0.28795  0.34060  0.22630  1.0000
  H   H22       1.0  0.22405  0.35250  0.19530  1.0000
  C   C26       1.0  0.29775  0.26990  0.25260  1.0000
  C   C27       1.0  0.40770  0.17800  0.33200  1.0000
  H   H23       1.0  0.37255  0.14040  0.29990  1.0000
  H   H24       1.0  0.48840  0.16730  0.33970  1.0000
  C   C28       1.0  0.04860  0.43250  0.31370  1.0000
  H   H25       1.0  0.12235  0.40840  0.31980  1.0000
  H   H26       1.0  0.05160  0.47140  0.27790  1.0000
  C   C29       1.0  0.34675  0.46980  0.21090  1.0000
  H   H27       1.0  0.26575  0.48000  0.20540  1.0000
  H   H28       1.0  0.38265  0.50660  0.24380  1.0000
  C   C30       1.0  0.20405  0.21630  0.22860  1.0000
  H   H29       1.0  0.13485  0.24430  0.21600  1.0000
  H   H30       1.0  0.19095  0.18420  0.26880  1.0000
  P   P9        1.0  0.40080  0.47928  0.12637  1.0000
  P   P10       1.0  0.01895  0.47262  0.39641  1.0000
  P   P11       1.0  0.23030  0.16053  0.15529  1.0000
  P   P12       1.0  0.34840  0.17395  0.41497  1.0000
  O   O25       1.0  0.35930  0.41730  0.07910  1.0000
  O   O26       1.0  0.03000  0.47170  0.14550  1.0000
  O   O27       1.0  0.37365  0.55320  0.09600  1.0000
  O   O28       1.0  0.03740  0.41640  0.45400  1.0000
  O   O29       1.0  0.08525  0.54270  0.40730  1.0000
  O   O30       1.0  0.39060  0.49340  0.38800  1.0000
  O   O31       1.0  0.11815  0.13370  0.12070  1.0000
  O   O32       1.0  0.29740  0.09330  0.18850  1.0000
  O   O33       1.0  0.29880  0.19820  0.10400  1.0000
  O   O34       1.0  0.21950  0.17040  0.39950  1.0000
  O   O35       1.0  0.37935  0.23950  0.45860  1.0000
  O   O36       1.0  0.38995  0.10120  0.44950  1.0000
  C   C31       1.0  0.20225  0.76990  0.24740  1.0000
  C   C32       1.0  0.09230  0.67800  0.16800  1.0000
  H   H31       1.0  0.12745  0.64040  0.20010  1.0000
  H   H32       1.0  0.01160  0.66730  0.16030  1.0000
  C   C33       1.0  0.45140  0.93250  0.18630  1.0000
  H   H33       1.0  0.37765  0.90840  0.18020  1.0000
  H   H34       1.0  0.44840  0.97140  0.22210  1.0000
  C   C34       1.0  0.15325  0.96980  0.28910  1.0000
  H   H35       1.0  0.23425  0.98000  0.29460  1.0000
  H   H36       1.0  0.11735  0.00660  0.25620  1.0000
  C   C35       1.0  0.29595  0.71630  0.27140  1.0000
  H   H37       1.0  0.36515  0.74430  0.28400  1.0000
  H   H38       1.0  0.30905  0.68420  0.23120  1.0000
  P   P13       1.0  0.09920  0.97928  0.37363  1.0000
  P   P14       1.0  0.48105  0.97262  0.10359  1.0000
  P   P15       1.0  0.26970  0.66053  0.34471  1.0000
  P   P16       1.0  0.15160  0.67395  0.08503  1.0000
  O   O37       1.0  0.14070  0.91730  0.42090  1.0000
  O   O38       1.0  0.47000  0.97170  0.35450  1.0000
  O   O39       1.0  0.12635  0.05320  0.40400  1.0000
  O   O40       1.0  0.46260  0.91640  0.04600  1.0000
  O   O41       1.0  0.41475  0.04270  0.09270  1.0000
  O   O42       1.0  0.10940  0.99340  0.11200  1.0000
  O   O43       1.0  0.38185  0.63370  0.37930  1.0000
  O   O44       1.0  0.20260  0.59330  0.31150  1.0000
  O   O45       1.0  0.20120  0.69820  0.39600  1.0000
  O   O46       1.0  0.28050  0.67040  0.10050  1.0000
  O   O47       1.0  0.12065  0.73950  0.04140  1.0000
  O   O48       1.0  0.11005  0.60120  0.05050  1.0000
  C   C36       1.0  0.10890  0.75190  0.20210  1.0000
  C   C37       1.0  0.02935  0.80580  0.18620  1.0000
  H   H39       1.0  0.46450  0.79370  0.15610  1.0000
  C   C38       1.0  0.04015  0.87670  0.21210  1.0000
  C   C39       1.0  0.13390  0.89440  0.25710  1.0000
  C   C40       1.0  0.21205  0.84060  0.27370  1.0000
  H   H40       1.0  0.27595  0.85250  0.30470  1.0000
  La  La1       1.0  0.04406  0.66659  0.46494  1.0000
  La  La2       1.0  0.45595  0.16659  0.03506  1.0000
  La  La3       1.0  0.45595  0.33341  0.53506  1.0000
  La  La4       1.0  0.04406  0.83341  0.96494  1.0000
  C   C41       1.0  0.60890  0.74810  0.70210  1.0000
  C   C42       1.0  0.52935  0.69420  0.68620  1.0000
  H   H41       1.0  0.96450  0.70630  0.65610  1.0000
  C   C43       1.0  0.54015  0.62330  0.71210  1.0000
  C   C44       1.0  0.63390  0.60560  0.75710  1.0000
  C   C45       1.0  0.71205  0.65940  0.77370  1.0000
  H   H42       1.0  0.77595  0.64750  0.80470  1.0000
  C   C46       1.0  0.70225  0.73010  0.74740  1.0000
  C   C47       1.0  0.59230  0.82200  0.66800  1.0000
  H   H43       1.0  0.62745  0.85960  0.70010  1.0000
  H   H44       1.0  0.51160  0.83270  0.66030  1.0000
  C   C48       1.0  0.95140  0.56750  0.68630  1.0000
  H   H45       1.0  0.87765  0.59160  0.68020  1.0000
  H   H46       1.0  0.94840  0.52860  0.72210  1.0000
  C   C49       1.0  0.65325  0.53020  0.78910  1.0000
  H   H47       1.0  0.73425  0.52000  0.79460  1.0000
  H   H48       1.0  0.61735  0.49340  0.75620  1.0000
  C   C50       1.0  0.79595  0.78370  0.77140  1.0000
  H   H49       1.0  0.86515  0.75570  0.78400  1.0000
  H   H50       1.0  0.80905  0.81580  0.73120  1.0000
  P   P17       1.0  0.59920  0.52072  0.87363  1.0000
  P   P18       1.0  0.98105  0.52738  0.60359  1.0000
  P   P19       1.0  0.76970  0.83947  0.84471  1.0000
  P   P20       1.0  0.65160  0.82605  0.58503  1.0000
  O   O49       1.0  0.64070  0.58270  0.92090  1.0000
  O   O50       1.0  0.97000  0.52830  0.85450  1.0000
  O   O51       1.0  0.62635  0.44680  0.90400  1.0000
  O   O52       1.0  0.96260  0.58360  0.54600  1.0000
  O   O53       1.0  0.91475  0.45730  0.59270  1.0000
  O   O54       1.0  0.60940  0.50660  0.61200  1.0000
  O   O55       1.0  0.88185  0.86630  0.87930  1.0000
  O   O56       1.0  0.70260  0.90670  0.81150  1.0000
  O   O57       1.0  0.70120  0.80180  0.89600  1.0000
  O   O58       1.0  0.78050  0.82960  0.60050  1.0000
  O   O59       1.0  0.62065  0.76050  0.54140  1.0000
  O   O60       1.0  0.61005  0.89880  0.55050  1.0000
  C   C51       1.0  0.89110  0.24810  0.79790  1.0000
  C   C52       1.0  0.97065  0.19420  0.81380  1.0000
  H   H51       1.0  0.53550  0.20630  0.84390  1.0000
  C   C53       1.0  0.95985  0.12330  0.78790  1.0000
  C   C54       1.0  0.86610  0.10560  0.74290  1.0000
  C   C55       1.0  0.78795  0.15940  0.72630  1.0000
  H   H52       1.0  0.72405  0.14750  0.69530  1.0000
  C   C56       1.0  0.79775  0.23010  0.75260  1.0000
  C   C57       1.0  0.90770  0.32200  0.83200  1.0000
  H   H53       1.0  0.87255  0.35960  0.79990  1.0000
  H   H54       1.0  0.98840  0.33270  0.83970  1.0000
  C   C58       1.0  0.54860  0.06750  0.81370  1.0000
  H   H55       1.0  0.62235  0.09160  0.81980  1.0000
  H   H56       1.0  0.55160  0.02860  0.77790  1.0000
  C   C59       1.0  0.84675  0.03020  0.71090  1.0000
  H   H57       1.0  0.76575  0.02000  0.70540  1.0000
  H   H58       1.0  0.88265  0.99340  0.74380  1.0000
  C   C60       1.0  0.70405  0.28370  0.72860  1.0000
  H   H59       1.0  0.63485  0.25570  0.71600  1.0000
  H   H60       1.0  0.69095  0.31580  0.76880  1.0000
  P   P21       1.0  0.90080  0.02072  0.62637  1.0000
  P   P22       1.0  0.51895  0.02738  0.89641  1.0000
  P   P23       1.0  0.73030  0.33947  0.65529  1.0000
  P   P24       1.0  0.84840  0.32605  0.91497  1.0000
  O   O61       1.0  0.85930  0.08270  0.57910  1.0000
  O   O62       1.0  0.53000  0.02830  0.64550  1.0000
  O   O63       1.0  0.87365  0.94680  0.59600  1.0000
  O   O64       1.0  0.53740  0.08360  0.95400  1.0000
  O   O65       1.0  0.58525  0.95730  0.90730  1.0000
  O   O66       1.0  0.89060  0.00660  0.88800  1.0000
  O   O67       1.0  0.61815  0.36630  0.62070  1.0000
  O   O68       1.0  0.79740  0.40670  0.68850  1.0000
  O   O69       1.0  0.79880  0.30180  0.60400  1.0000
  O   O70       1.0  0.71950  0.32960  0.89950  1.0000
  O   O71       1.0  0.87935  0.26050  0.95860  1.0000
  O   O72       1.0  0.88995  0.39880  0.94950  1.0000
  C   C61       1.0  0.89110  0.25190  0.29790  1.0000
  C   C62       1.0  0.97065  0.30580  0.31380  1.0000
  H   H61       1.0  0.53550  0.29370  0.34390  1.0000
  C   C63       1.0  0.95985  0.37670  0.28790  1.0000
  C   C64       1.0  0.86610  0.39440  0.24290  1.0000
  C   C65       1.0  0.78795  0.34060  0.22630  1.0000
  H   H62       1.0  0.72405  0.35250  0.19530  1.0000
  C   C66       1.0  0.79775  0.26990  0.25260  1.0000
  C   C67       1.0  0.90770  0.17800  0.33200  1.0000
  H   H63       1.0  0.87255  0.14040  0.29990  1.0000
  H   H64       1.0  0.98840  0.16730  0.33970  1.0000
  C   C68       1.0  0.54860  0.43250  0.31370  1.0000
  H   H65       1.0  0.62235  0.40840  0.31980  1.0000
  H   H66       1.0  0.55160  0.47140  0.27790  1.0000
  C   C69       1.0  0.84675  0.46980  0.21090  1.0000
  H   H67       1.0  0.76575  0.48000  0.20540  1.0000
  H   H68       1.0  0.88265  0.50660  0.24380  1.0000
  C   C70       1.0  0.70405  0.21630  0.22860  1.0000
  H   H69       1.0  0.63485  0.24430  0.21600  1.0000
  H   H70       1.0  0.69095  0.18420  0.26880  1.0000
  P   P25       1.0  0.90080  0.47928  0.12637  1.0000
  P   P26       1.0  0.51895  0.47262  0.39641  1.0000
  P   P27       1.0  0.73030  0.16053  0.15529  1.0000
  P   P28       1.0  0.84840  0.17395  0.41497  1.0000
  O   O73       1.0  0.85930  0.41730  0.07910  1.0000
  O   O74       1.0  0.53000  0.47170  0.14550  1.0000
  O   O75       1.0  0.87365  0.55320  0.09600  1.0000
  O   O76       1.0  0.53740  0.41640  0.45400  1.0000
  O   O77       1.0  0.58525  0.54270  0.40730  1.0000
  O   O78       1.0  0.89060  0.49340  0.38800  1.0000
  O   O79       1.0  0.61815  0.13370  0.12070  1.0000
  O   O80       1.0  0.79740  0.09330  0.18850  1.0000
  O   O81       1.0  0.79880  0.19820  0.10400  1.0000
  O   O82       1.0  0.71950  0.17040  0.39950  1.0000
  O   O83       1.0  0.87935  0.23950  0.45860  1.0000
  O   O84       1.0  0.88995  0.10120  0.44950  1.0000
  C   C71       1.0  0.70225  0.76990  0.24740  1.0000
  C   C72       1.0  0.59230  0.67800  0.16800  1.0000
  H   H71       1.0  0.62745  0.64040  0.20010  1.0000
  H   H72       1.0  0.51160  0.66730  0.16030  1.0000
  C   C73       1.0  0.95140  0.93250  0.18630  1.0000
  H   H73       1.0  0.87765  0.90840  0.18020  1.0000
  H   H74       1.0  0.94840  0.97140  0.22210  1.0000
  C   C74       1.0  0.65325  0.96980  0.28910  1.0000
  H   H75       1.0  0.73425  0.98000  0.29460  1.0000
  H   H76       1.0  0.61735  0.00660  0.25620  1.0000
  C   C75       1.0  0.79595  0.71630  0.27140  1.0000
  H   H77       1.0  0.86515  0.74430  0.28400  1.0000
  H   H78       1.0  0.80905  0.68420  0.23120  1.0000
  P   P29       1.0  0.59920  0.97928  0.37363  1.0000
  P   P30       1.0  0.98105  0.97262  0.10359  1.0000
  P   P31       1.0  0.76970  0.66053  0.34471  1.0000
  P   P32       1.0  0.65160  0.67395  0.08503  1.0000
  O   O85       1.0  0.64070  0.91730  0.42090  1.0000
  O   O86       1.0  0.97000  0.97170  0.35450  1.0000
  O   O87       1.0  0.62635  0.05320  0.40400  1.0000
  O   O88       1.0  0.96260  0.91640  0.04600  1.0000
  O   O89       1.0  0.91475  0.04270  0.09270  1.0000
  O   O90       1.0  0.60940  0.99340  0.11200  1.0000
  O   O91       1.0  0.88185  0.63370  0.37930  1.0000
  O   O92       1.0  0.70260  0.59330  0.31150  1.0000
  O   O93       1.0  0.70120  0.69820  0.39600  1.0000
  O   O94       1.0  0.78050  0.67040  0.10050  1.0000
  O   O95       1.0  0.62065  0.73950  0.04140  1.0000
  O   O96       1.0  0.61005  0.60120  0.05050  1.0000
  C   C76       1.0  0.60890  0.75190  0.20210  1.0000
  C   C77       1.0  0.52935  0.80580  0.18620  1.0000
  H   H79       1.0  0.96450  0.79370  0.15610  1.0000
  C   C78       1.0  0.54015  0.87670  0.21210  1.0000
  C   C79       1.0  0.63390  0.89440  0.25710  1.0000
  C   C80       1.0  0.71205  0.84060  0.27370  1.0000
  H   H80       1.0  0.77595  0.85250  0.30470  1.0000
  La  La5       1.0  0.54406  0.66659  0.46494  1.0000
  La  La6       1.0  0.95595  0.16659  0.03506  1.0000
  La  La7       1.0  0.95595  0.33341  0.53506  1.0000
  La  La8       1.0  0.54406  0.83341  0.96494  1.0000
