data_image0
_chemical_formula_structural       C2H2C2H2CHC3HCHCHCHN2O4C2H2C2H2CHC3HCHCHCHN2O4C2H2C2H2CHC3HCHCHCHN2O4C2H2C2H2CHC3HCHCHCHN2O4Cl4Zn4C2H2C2H2CHC3HCHCHCHN2O4C2H2C2H2CHC3HCHCHCHN2O4C2H2C2H2CHC3HCHCHCHN2O4C2H2C2H2CHC3HCHCHCHN2O4Cl4Zn4
_chemical_formula_sum              "C88 H72 N16 O32 Cl8 Zn8"
_cell_length_a       13.8954
_cell_length_b       13.18
_cell_length_c       14.6073
_cell_angle_alpha    90
_cell_angle_beta     117.821
_cell_angle_gamma    90

_space_group_name_H-M_alt    "P 1"
_space_group_IT_number       1

loop_
  _space_group_symop_operation_xyz
  'x, y, z'

loop_
  _atom_site_type_symbol
  _atom_site_label
  _atom_site_symmetry_multiplicity
  _atom_site_fract_x
  _atom_site_fract_y
  _atom_site_fract_z
  _atom_site_occupancy
  C   C1        1.0  0.31705  0.04560  0.34880  1.0000
  C   C2        1.0  0.20200  0.07820  0.27250  1.0000
  H   H1        1.0  0.15113  0.02762  0.27210  1.0000
  H   H2        1.0  0.18569  0.14162  0.29609  1.0000
  C   C3        1.0  0.08855  0.34550  0.96660  1.0000
  C   C4        1.0  0.15130  0.25460  0.95660  1.0000
  H   H3        1.0  0.11477  0.23028  0.88575  1.0000
  H   H4        1.0  0.22360  0.27673  0.97097  1.0000
  C   C5        1.0  0.18915  0.18040  0.12580  1.0000
  H   H5        1.0  0.20852  0.24133  0.16205  1.0000
  C   C6        1.0  0.15375  0.01850  0.08930  1.0000
  C   C7        1.0  0.13895  0.06850  0.99990  1.0000
  C   C8        1.0  0.10710  0.01760  0.90700  1.0000
  H   H6        1.0  0.09823  0.05102  0.84751  1.0000
  C   C9        1.0  0.08935  0.91490  0.90780  1.0000
  H   H7        1.0  0.06758  0.87798  0.84709  1.0000
  C   C10       1.0  0.10315  0.86490  0.99720  1.0000
  H   H8        1.0  0.08981  0.79553  0.99423  1.0000
  C   C11       1.0  0.13595  0.91520  0.08980  1.0000
  H   H9        1.0  0.14558  0.88143  0.14937  1.0000
  N   N1        1.0  0.18560  0.09170  0.16670  1.0000
  N   N2        1.0  0.16130  0.17080  0.02610  1.0000
  O   O1        1.0  0.36875  0.99320  0.31530  1.0000
  O   O2        1.0  0.34615  0.07260  0.43957  1.0000
  O   O3        1.0  0.05710  0.34203  0.03320  1.0000
  O   O4        1.0  0.07685  0.41544  0.90530  1.0000
  C   C12       1.0  0.18295  0.54560  0.15120  1.0000
  C   C13       1.0  0.29800  0.57820  0.22750  1.0000
  H   H10       1.0  0.34887  0.52762  0.22790  1.0000
  H   H11       1.0  0.31430  0.64162  0.20391  1.0000
  C   C14       1.0  0.41145  0.84550  0.53340  1.0000
  C   C15       1.0  0.34870  0.75460  0.54340  1.0000
  H   H12       1.0  0.38523  0.73028  0.61425  1.0000
  H   H13       1.0  0.27640  0.77673  0.52903  1.0000
  C   C16       1.0  0.31085  0.68040  0.37420  1.0000
  H   H14       1.0  0.29148  0.74133  0.33795  1.0000
  C   C17       1.0  0.34625  0.51850  0.41070  1.0000
  C   C18       1.0  0.36105  0.56850  0.50010  1.0000
  C   C19       1.0  0.39290  0.51760  0.59300  1.0000
  H   H15       1.0  0.40177  0.55102  0.65249  1.0000
  C   C20       1.0  0.41065  0.41490  0.59220  1.0000
  H   H16       1.0  0.43242  0.37798  0.65291  1.0000
  C   C21       1.0  0.39685  0.36490  0.50280  1.0000
  H   H17       1.0  0.41019  0.29553  0.50577  1.0000
  C   C22       1.0  0.36405  0.41520  0.41020  1.0000
  H   H18       1.0  0.35442  0.38143  0.35063  1.0000
  N   N3        1.0  0.31440  0.59170  0.33330  1.0000
  N   N4        1.0  0.33870  0.67080  0.47390  1.0000
  O   O5        1.0  0.13125  0.49320  0.18470  1.0000
  O   O6        1.0  0.15385  0.57260  0.06043  1.0000
  O   O7        1.0  0.44290  0.84203  0.46680  1.0000
  O   O8        1.0  0.42315  0.91544  0.59470  1.0000
  C   C23       1.0  0.18295  0.95440  0.65120  1.0000
  C   C24       1.0  0.29800  0.92180  0.72750  1.0000
  H   H19       1.0  0.34887  0.97238  0.72790  1.0000
  H   H20       1.0  0.31430  0.85838  0.70391  1.0000
  C   C25       1.0  0.41145  0.65450  0.03340  1.0000
  C   C26       1.0  0.34870  0.74540  0.04340  1.0000
  H   H21       1.0  0.38523  0.76972  0.11425  1.0000
  H   H22       1.0  0.27640  0.72327  0.02903  1.0000
  C   C27       1.0  0.31085  0.81960  0.87420  1.0000
  H   H23       1.0  0.29148  0.75867  0.83795  1.0000
  C   C28       1.0  0.34625  0.98150  0.91070  1.0000
  C   C29       1.0  0.36105  0.93150  0.00010  1.0000
  C   C30       1.0  0.39290  0.98240  0.09300  1.0000
  H   H24       1.0  0.40176  0.94898  0.15249  1.0000
  C   C31       1.0  0.41065  0.08510  0.09220  1.0000
  H   H25       1.0  0.43242  0.12202  0.15291  1.0000
  C   C32       1.0  0.39685  0.13510  0.00280  1.0000
  H   H26       1.0  0.41019  0.20447  0.00577  1.0000
  C   C33       1.0  0.36405  0.08480  0.91020  1.0000
  H   H27       1.0  0.35442  0.11857  0.85063  1.0000
  N   N5        1.0  0.31440  0.90830  0.83330  1.0000
  N   N6        1.0  0.33870  0.82920  0.97390  1.0000
  O   O9        1.0  0.13125  0.00680  0.68470  1.0000
  O   O10       1.0  0.15385  0.92740  0.56043  1.0000
  O   O11       1.0  0.44290  0.65797  0.96680  1.0000
  O   O12       1.0  0.42315  0.58456  0.09470  1.0000
  C   C34       1.0  0.31705  0.45440  0.84880  1.0000
  C   C35       1.0  0.20200  0.42180  0.77250  1.0000
  H   H28       1.0  0.15113  0.47238  0.77210  1.0000
  H   H29       1.0  0.18569  0.35838  0.79609  1.0000
  C   C36       1.0  0.08855  0.15450  0.46660  1.0000
  C   C37       1.0  0.15130  0.24540  0.45660  1.0000
  H   H30       1.0  0.11477  0.26972  0.38575  1.0000
  H   H31       1.0  0.22360  0.22327  0.47097  1.0000
  C   C38       1.0  0.18915  0.31960  0.62580  1.0000
  H   H32       1.0  0.20852  0.25867  0.66205  1.0000
  C   C39       1.0  0.15375  0.48150  0.58930  1.0000
  C   C40       1.0  0.13895  0.43150  0.49990  1.0000
  C   C41       1.0  0.10710  0.48240  0.40700  1.0000
  H   H33       1.0  0.09823  0.44898  0.34751  1.0000
  C   C42       1.0  0.08935  0.58510  0.40780  1.0000
  H   H34       1.0  0.06758  0.62202  0.34709  1.0000
  C   C43       1.0  0.10315  0.63510  0.49720  1.0000
  H   H35       1.0  0.08981  0.70447  0.49423  1.0000
  C   C44       1.0  0.13595  0.58480  0.58980  1.0000
  H   H36       1.0  0.14558  0.61857  0.64937  1.0000
  N   N7        1.0  0.18560  0.40830  0.66670  1.0000
  N   N8        1.0  0.16130  0.32920  0.52610  1.0000
  O   O13       1.0  0.36875  0.50680  0.81530  1.0000
  O   O14       1.0  0.34615  0.42740  0.93957  1.0000
  O   O15       1.0  0.05710  0.15797  0.53320  1.0000
  O   O16       1.0  0.07685  0.08456  0.40530  1.0000
  Cl  Cl1       1.0  0.07417  0.84265  0.31890  1.0000
  Cl  Cl2       1.0  0.42583  0.34265  0.18110  1.0000
  Cl  Cl3       1.0  0.42583  0.15735  0.68110  1.0000
  Cl  Cl4       1.0  0.07417  0.65735  0.81890  1.0000
  Zn  Zn1       1.0  0.02313  0.94266  0.41487  1.0000
  Zn  Zn2       1.0  0.47686  0.05734  0.58513  1.0000
  Zn  Zn3       1.0  0.47686  0.44266  0.08513  1.0000
  Zn  Zn4       1.0  0.02314  0.55734  0.91487  1.0000
  C   C45       1.0  0.81705  0.04560  0.34880  1.0000
  C   C46       1.0  0.70200  0.07820  0.27250  1.0000
  H   H37       1.0  0.65113  0.02762  0.27210  1.0000
  H   H38       1.0  0.68569  0.14162  0.29609  1.0000
  C   C47       1.0  0.58855  0.34550  0.96660  1.0000
  C   C48       1.0  0.65130  0.25460  0.95660  1.0000
  H   H39       1.0  0.61477  0.23028  0.88575  1.0000
  H   H40       1.0  0.72360  0.27673  0.97097  1.0000
  C   C49       1.0  0.68915  0.18040  0.12580  1.0000
  H   H41       1.0  0.70851  0.24133  0.16205  1.0000
  C   C50       1.0  0.65375  0.01850  0.08930  1.0000
  C   C51       1.0  0.63895  0.06850  0.99990  1.0000
  C   C52       1.0  0.60710  0.01760  0.90700  1.0000
  H   H42       1.0  0.59823  0.05102  0.84751  1.0000
  C   C53       1.0  0.58935  0.91490  0.90780  1.0000
  H   H43       1.0  0.56758  0.87798  0.84709  1.0000
  C   C54       1.0  0.60315  0.86490  0.99720  1.0000
  H   H44       1.0  0.58981  0.79553  0.99423  1.0000
  C   C55       1.0  0.63595  0.91520  0.08980  1.0000
  H   H45       1.0  0.64558  0.88143  0.14937  1.0000
  N   N9        1.0  0.68560  0.09170  0.16670  1.0000
  N   N10       1.0  0.66130  0.17080  0.02610  1.0000
  O   O17       1.0  0.86875  0.99320  0.31530  1.0000
  O   O18       1.0  0.84615  0.07260  0.43957  1.0000
  O   O19       1.0  0.55710  0.34203  0.03320  1.0000
  O   O20       1.0  0.57685  0.41544  0.90530  1.0000
  C   C56       1.0  0.68295  0.54560  0.15120  1.0000
  C   C57       1.0  0.79800  0.57820  0.22750  1.0000
  H   H46       1.0  0.84887  0.52762  0.22790  1.0000
  H   H47       1.0  0.81430  0.64162  0.20391  1.0000
  C   C58       1.0  0.91145  0.84550  0.53340  1.0000
  C   C59       1.0  0.84870  0.75460  0.54340  1.0000
  H   H48       1.0  0.88523  0.73028  0.61425  1.0000
  H   H49       1.0  0.77640  0.77673  0.52903  1.0000
  C   C60       1.0  0.81085  0.68040  0.37420  1.0000
  H   H50       1.0  0.79148  0.74133  0.33795  1.0000
  C   C61       1.0  0.84625  0.51850  0.41070  1.0000
  C   C62       1.0  0.86105  0.56850  0.50010  1.0000
  C   C63       1.0  0.89290  0.51760  0.59300  1.0000
  H   H51       1.0  0.90176  0.55102  0.65249  1.0000
  C   C64       1.0  0.91065  0.41490  0.59220  1.0000
  H   H52       1.0  0.93242  0.37798  0.65291  1.0000
  C   C65       1.0  0.89685  0.36490  0.50280  1.0000
  H   H53       1.0  0.91019  0.29553  0.50577  1.0000
  C   C66       1.0  0.86405  0.41520  0.41020  1.0000
  H   H54       1.0  0.85442  0.38143  0.35063  1.0000
  N   N11       1.0  0.81440  0.59170  0.33330  1.0000
  N   N12       1.0  0.83870  0.67080  0.47390  1.0000
  O   O21       1.0  0.63125  0.49320  0.18470  1.0000
  O   O22       1.0  0.65385  0.57260  0.06043  1.0000
  O   O23       1.0  0.94290  0.84203  0.46680  1.0000
  O   O24       1.0  0.92315  0.91544  0.59470  1.0000
  C   C67       1.0  0.68295  0.95440  0.65120  1.0000
  C   C68       1.0  0.79800  0.92180  0.72750  1.0000
  H   H55       1.0  0.84887  0.97238  0.72790  1.0000
  H   H56       1.0  0.81430  0.85838  0.70391  1.0000
  C   C69       1.0  0.91145  0.65450  0.03340  1.0000
  C   C70       1.0  0.84870  0.74540  0.04340  1.0000
  H   H57       1.0  0.88523  0.76972  0.11425  1.0000
  H   H58       1.0  0.77640  0.72327  0.02903  1.0000
  C   C71       1.0  0.81085  0.81960  0.87420  1.0000
  H   H59       1.0  0.79148  0.75867  0.83795  1.0000
  C   C72       1.0  0.84625  0.98150  0.91070  1.0000
  C   C73       1.0  0.86105  0.93150  0.00010  1.0000
  C   C74       1.0  0.89290  0.98240  0.09300  1.0000
  H   H60       1.0  0.90176  0.94898  0.15249  1.0000
  C   C75       1.0  0.91065  0.08510  0.09220  1.0000
  H   H61       1.0  0.93242  0.12202  0.15291  1.0000
  C   C76       1.0  0.89685  0.13510  0.00280  1.0000
  H   H62       1.0  0.91019  0.20447  0.00577  1.0000
  C   C77       1.0  0.86405  0.08480  0.91020  1.0000
  H   H63       1.0  0.85442  0.11857  0.85063  1.0000
  N   N13       1.0  0.81440  0.90830  0.83330  1.0000
  N   N14       1.0  0.83870  0.82920  0.97390  1.0000
  O   O25       1.0  0.63125  0.00680  0.68470  1.0000
  O   O26       1.0  0.65385  0.92740  0.56043  1.0000
  O   O27       1.0  0.94290  0.65797  0.96680  1.0000
  O   O28       1.0  0.92315  0.58456  0.09470  1.0000
  C   C78       1.0  0.81705  0.45440  0.84880  1.0000
  C   C79       1.0  0.70200  0.42180  0.77250  1.0000
  H   H64       1.0  0.65113  0.47238  0.77210  1.0000
  H   H65       1.0  0.68570  0.35838  0.79609  1.0000
  C   C80       1.0  0.58855  0.15450  0.46660  1.0000
  C   C81       1.0  0.65130  0.24540  0.45660  1.0000
  H   H66       1.0  0.61477  0.26972  0.38575  1.0000
  H   H67       1.0  0.72360  0.22327  0.47097  1.0000
  C   C82       1.0  0.68915  0.31960  0.62580  1.0000
  H   H68       1.0  0.70851  0.25867  0.66205  1.0000
  C   C83       1.0  0.65375  0.48150  0.58930  1.0000
  C   C84       1.0  0.63895  0.43150  0.49990  1.0000
  C   C85       1.0  0.60710  0.48240  0.40700  1.0000
  H   H69       1.0  0.59823  0.44898  0.34751  1.0000
  C   C86       1.0  0.58935  0.58510  0.40780  1.0000
  H   H70       1.0  0.56758  0.62202  0.34709  1.0000
  C   C87       1.0  0.60315  0.63510  0.49720  1.0000
  H   H71       1.0  0.58981  0.70447  0.49423  1.0000
  C   C88       1.0  0.63595  0.58480  0.58980  1.0000
  H   H72       1.0  0.64558  0.61857  0.64937  1.0000
  N   N15       1.0  0.68560  0.40830  0.66670  1.0000
  N   N16       1.0  0.66130  0.32920  0.52610  1.0000
  O   O29       1.0  0.86875  0.50680  0.81530  1.0000
  O   O30       1.0  0.84615  0.42740  0.93957  1.0000
  O   O31       1.0  0.55710  0.15797  0.53320  1.0000
  O   O32       1.0  0.57685  0.08456  0.40530  1.0000
  Cl  Cl5       1.0  0.57416  0.84265  0.31890  1.0000
  Cl  Cl6       1.0  0.92583  0.34265  0.18110  1.0000
  Cl  Cl7       1.0  0.92583  0.15735  0.68110  1.0000
  Cl  Cl8       1.0  0.57417  0.65735  0.81890  1.0000
  Zn  Zn5       1.0  0.52313  0.94266  0.41487  1.0000
  Zn  Zn6       1.0  0.97686  0.05734  0.58513  1.0000
  Zn  Zn7       1.0  0.97686  0.44266  0.08513  1.0000
  Zn  Zn8       1.0  0.52313  0.55734  0.91487  1.0000
