data_image0
_chemical_formula_structural       C4HOCHCHONONC5HO3HC5HOCHCHONONC5HO3HC5HOCHCHONONC5HO3HC5HOCHCHONONC5HO3HCBa4C4HOCHCHONONC5HO3HC5HOCHCHONONC5HO3HC5HOCHCHONONC5HO3HC5HOCHCHONONC5HO3HCBa4
_chemical_formula_sum              "C96 H40 O48 N16 Ba8"
_cell_length_a       9.0928
_cell_length_b       19.9846
_cell_length_c       13.9695
_cell_angle_alpha    90
_cell_angle_beta     92.641
_cell_angle_gamma    90

_space_group_name_H-M_alt    "P 1"
_space_group_IT_number       1

loop_
  _space_group_symop_operation_xyz
  'x, y, z'

loop_
  _atom_site_type_symbol
  _atom_site_label
  _atom_site_symmetry_multiplicity
  _atom_site_fract_x
  _atom_site_fract_y
  _atom_site_fract_z
  _atom_site_occupancy
  C   C1        1.0  0.22550  0.55977  0.23376  1.0000
  C   C2        1.0  0.17425  0.55052  0.13080  1.0000
  C   C3        1.0  0.19455  0.61638  0.28765  1.0000
  C   C4        1.0  0.31175  0.50843  0.27410  1.0000
  H   H1        1.0  0.33030  0.47050  0.23810  1.0000
  O   O1        1.0  0.06825  0.51150  0.11135  1.0000
  C   C5        1.0  0.34185  0.56970  0.42030  1.0000
  H   H2        1.0  0.38155  0.57360  0.48260  1.0000
  C   C6        1.0  0.25520  0.62007  0.38150  1.0000
  H   H3        1.0  0.23635  0.65750  0.41850  1.0000
  O   O2        1.0  0.40130  0.73978  0.00079  1.0000
  N   N1        1.0  0.03610  0.67773  0.16353  1.0000
  O   O3        1.0  0.23875  0.58218  0.06738  1.0000
  N   N2        1.0  0.05965  0.72248  0.30924  1.0000
  C   C7        1.0  0.37710  0.76287  0.07974  1.0000
  C   C8        1.0  0.45365  0.73553  0.16699  1.0000
  C   C9        1.0  0.46730  0.76377  0.25694  1.0000
  C   C10       1.0  0.09885  0.67081  0.25135  1.0000
  C   C11       1.0  0.37000  0.51330  0.36690  1.0000
  H   H4        1.0  0.42760  0.47890  0.39330  1.0000
  O   O4        1.0  0.46375  0.84586  0.37686  1.0000
  O   O5        1.0  0.29320  0.85108  0.25894  1.0000
  O   O6        1.0  0.28615  0.81220  0.08840  1.0000
  H   H5        1.0  0.27525  0.81960  0.14540  1.0000
  C   C12       1.0  0.40510  0.82470  0.29994  1.0000
  C   C13       1.0  0.02450  0.05977  0.26624  1.0000
  C   C14       1.0  0.07575  0.05052  0.36920  1.0000
  C   C15       1.0  0.05545  0.11638  0.21235  1.0000
  C   C16       1.0  0.43825  0.00843  0.22590  1.0000
  H   H6        1.0  0.41970  0.97050  0.26190  1.0000
  O   O7        1.0  0.18175  0.01150  0.38865  1.0000
  C   C17       1.0  0.40815  0.06970  0.07970  1.0000
  H   H7        1.0  0.36845  0.07360  0.01740  1.0000
  C   C18       1.0  0.49480  0.12007  0.11850  1.0000
  H   H8        1.0  0.01365  0.15750  0.08150  1.0000
  O   O8        1.0  0.34870  0.23978  0.49921  1.0000
  N   N3        1.0  0.21390  0.17773  0.33647  1.0000
  O   O9        1.0  0.01125  0.08218  0.43262  1.0000
  N   N4        1.0  0.19035  0.22248  0.19076  1.0000
  C   C19       1.0  0.37290  0.26287  0.42026  1.0000
  C   C20       1.0  0.29635  0.23553  0.33301  1.0000
  C   C21       1.0  0.28270  0.26377  0.24306  1.0000
  C   C22       1.0  0.15115  0.17081  0.24865  1.0000
  C   C23       1.0  0.38000  0.01330  0.13310  1.0000
  H   H9        1.0  0.32240  0.97890  0.10670  1.0000
  O   O10       1.0  0.28625  0.34586  0.12314  1.0000
  O   O11       1.0  0.45680  0.35108  0.24106  1.0000
  O   O12       1.0  0.46385  0.31220  0.41160  1.0000
  H   H10       1.0  0.47475  0.31960  0.35460  1.0000
  C   C24       1.0  0.34490  0.32470  0.20006  1.0000
  C   C25       1.0  0.27450  0.44023  0.76624  1.0000
  C   C26       1.0  0.32575  0.44948  0.86920  1.0000
  C   C27       1.0  0.30545  0.38362  0.71235  1.0000
  C   C28       1.0  0.18825  0.49157  0.72590  1.0000
  H   H11       1.0  0.16970  0.52950  0.76190  1.0000
  O   O13       1.0  0.43175  0.48850  0.88865  1.0000
  C   C29       1.0  0.15815  0.43030  0.57970  1.0000
  H   H12       1.0  0.11845  0.42640  0.51740  1.0000
  C   C30       1.0  0.24480  0.37993  0.61850  1.0000
  H   H13       1.0  0.26365  0.34250  0.58150  1.0000
  O   O14       1.0  0.09870  0.26022  0.99921  1.0000
  N   N5        1.0  0.46390  0.32227  0.83647  1.0000
  O   O15       1.0  0.26125  0.41782  0.93262  1.0000
  N   N6        1.0  0.44035  0.27752  0.69076  1.0000
  C   C31       1.0  0.12290  0.23713  0.92026  1.0000
  C   C32       1.0  0.04635  0.26447  0.83301  1.0000
  C   C33       1.0  0.03270  0.23623  0.74306  1.0000
  C   C34       1.0  0.40115  0.32919  0.74865  1.0000
  C   C35       1.0  0.13000  0.48670  0.63310  1.0000
  H   H14       1.0  0.07240  0.52110  0.60670  1.0000
  O   O16       1.0  0.03625  0.15414  0.62314  1.0000
  O   O17       1.0  0.20680  0.14892  0.74106  1.0000
  O   O18       1.0  0.21385  0.18780  0.91160  1.0000
  H   H15       1.0  0.22475  0.18040  0.85460  1.0000
  C   C36       1.0  0.09490  0.17530  0.70006  1.0000
  C   C37       1.0  0.47550  0.94023  0.73376  1.0000
  C   C38       1.0  0.42425  0.94948  0.63080  1.0000
  C   C39       1.0  0.44455  0.88362  0.78765  1.0000
  C   C40       1.0  0.06175  0.99157  0.77410  1.0000
  H   H16       1.0  0.08030  0.02950  0.73810  1.0000
  O   O19       1.0  0.31825  0.98850  0.61135  1.0000
  C   C41       1.0  0.09185  0.93030  0.92030  1.0000
  H   H17       1.0  0.13155  0.92640  0.98260  1.0000
  C   C42       1.0  0.00520  0.87993  0.88150  1.0000
  H   H18       1.0  0.48635  0.84250  0.91850  1.0000
  O   O20       1.0  0.15130  0.76022  0.50079  1.0000
  N   N7        1.0  0.28610  0.82227  0.66353  1.0000
  O   O21       1.0  0.48875  0.91782  0.56738  1.0000
  N   N8        1.0  0.30965  0.77752  0.80924  1.0000
  C   C43       1.0  0.12710  0.73713  0.57974  1.0000
  C   C44       1.0  0.20365  0.76447  0.66699  1.0000
  C   C45       1.0  0.21730  0.73623  0.75694  1.0000
  C   C46       1.0  0.34885  0.82919  0.75135  1.0000
  C   C47       1.0  0.12000  0.98670  0.86690  1.0000
  H   H19       1.0  0.17760  0.02110  0.89330  1.0000
  O   O22       1.0  0.21375  0.65414  0.87686  1.0000
  O   O23       1.0  0.04320  0.64892  0.75894  1.0000
  O   O24       1.0  0.03615  0.68780  0.58840  1.0000
  H   H20       1.0  0.02525  0.68040  0.64540  1.0000
  C   C48       1.0  0.15510  0.67530  0.79994  1.0000
  Ba  Ba1       1.0  0.47187  0.60833  0.97045  1.0000
  Ba  Ba2       1.0  0.27813  0.10833  0.52955  1.0000
  Ba  Ba3       1.0  0.02813  0.39168  0.02955  1.0000
  Ba  Ba4       1.0  0.22188  0.89168  0.47045  1.0000
  C   C49       1.0  0.72550  0.55977  0.23376  1.0000
  C   C50       1.0  0.67425  0.55052  0.13080  1.0000
  C   C51       1.0  0.69455  0.61638  0.28765  1.0000
  C   C52       1.0  0.81175  0.50843  0.27410  1.0000
  H   H21       1.0  0.83030  0.47050  0.23810  1.0000
  O   O25       1.0  0.56825  0.51150  0.11135  1.0000
  C   C53       1.0  0.84185  0.56970  0.42030  1.0000
  H   H22       1.0  0.88155  0.57360  0.48260  1.0000
  C   C54       1.0  0.75520  0.62007  0.38150  1.0000
  H   H23       1.0  0.73635  0.65750  0.41850  1.0000
  O   O26       1.0  0.90130  0.73978  0.00079  1.0000
  N   N9        1.0  0.53610  0.67773  0.16353  1.0000
  O   O27       1.0  0.73875  0.58218  0.06738  1.0000
  N   N10       1.0  0.55965  0.72248  0.30924  1.0000
  C   C55       1.0  0.87710  0.76287  0.07974  1.0000
  C   C56       1.0  0.95365  0.73553  0.16699  1.0000
  C   C57       1.0  0.96730  0.76377  0.25694  1.0000
  C   C58       1.0  0.59885  0.67081  0.25135  1.0000
  C   C59       1.0  0.87000  0.51330  0.36690  1.0000
  H   H24       1.0  0.92760  0.47890  0.39330  1.0000
  O   O28       1.0  0.96375  0.84586  0.37686  1.0000
  O   O29       1.0  0.79320  0.85108  0.25894  1.0000
  O   O30       1.0  0.78615  0.81220  0.08840  1.0000
  H   H25       1.0  0.77525  0.81960  0.14540  1.0000
  C   C60       1.0  0.90510  0.82470  0.29994  1.0000
  C   C61       1.0  0.52450  0.05977  0.26624  1.0000
  C   C62       1.0  0.57575  0.05052  0.36920  1.0000
  C   C63       1.0  0.55545  0.11638  0.21235  1.0000
  C   C64       1.0  0.93825  0.00843  0.22590  1.0000
  H   H26       1.0  0.91970  0.97050  0.26190  1.0000
  O   O31       1.0  0.68175  0.01150  0.38865  1.0000
  C   C65       1.0  0.90815  0.06970  0.07970  1.0000
  H   H27       1.0  0.86845  0.07360  0.01740  1.0000
  C   C66       1.0  0.99480  0.12007  0.11850  1.0000
  H   H28       1.0  0.51365  0.15750  0.08150  1.0000
  O   O32       1.0  0.84870  0.23978  0.49921  1.0000
  N   N11       1.0  0.71390  0.17773  0.33647  1.0000
  O   O33       1.0  0.51125  0.08218  0.43262  1.0000
  N   N12       1.0  0.69035  0.22248  0.19076  1.0000
  C   C67       1.0  0.87290  0.26287  0.42026  1.0000
  C   C68       1.0  0.79635  0.23553  0.33301  1.0000
  C   C69       1.0  0.78270  0.26377  0.24306  1.0000
  C   C70       1.0  0.65115  0.17081  0.24865  1.0000
  C   C71       1.0  0.88000  0.01330  0.13310  1.0000
  H   H29       1.0  0.82240  0.97890  0.10670  1.0000
  O   O34       1.0  0.78625  0.34586  0.12314  1.0000
  O   O35       1.0  0.95680  0.35108  0.24106  1.0000
  O   O36       1.0  0.96385  0.31220  0.41160  1.0000
  H   H30       1.0  0.97475  0.31960  0.35460  1.0000
  C   C72       1.0  0.84490  0.32470  0.20006  1.0000
  C   C73       1.0  0.77450  0.44023  0.76624  1.0000
  C   C74       1.0  0.82575  0.44948  0.86920  1.0000
  C   C75       1.0  0.80545  0.38362  0.71235  1.0000
  C   C76       1.0  0.68825  0.49157  0.72590  1.0000
  H   H31       1.0  0.66970  0.52950  0.76190  1.0000
  O   O37       1.0  0.93175  0.48850  0.88865  1.0000
  C   C77       1.0  0.65815  0.43030  0.57970  1.0000
  H   H32       1.0  0.61845  0.42640  0.51740  1.0000
  C   C78       1.0  0.74480  0.37993  0.61850  1.0000
  H   H33       1.0  0.76365  0.34250  0.58150  1.0000
  O   O38       1.0  0.59870  0.26022  0.99921  1.0000
  N   N13       1.0  0.96390  0.32227  0.83647  1.0000
  O   O39       1.0  0.76125  0.41782  0.93262  1.0000
  N   N14       1.0  0.94035  0.27752  0.69076  1.0000
  C   C79       1.0  0.62290  0.23713  0.92026  1.0000
  C   C80       1.0  0.54635  0.26447  0.83301  1.0000
  C   C81       1.0  0.53270  0.23623  0.74306  1.0000
  C   C82       1.0  0.90115  0.32919  0.74865  1.0000
  C   C83       1.0  0.63000  0.48670  0.63310  1.0000
  H   H34       1.0  0.57240  0.52110  0.60670  1.0000
  O   O40       1.0  0.53625  0.15414  0.62314  1.0000
  O   O41       1.0  0.70680  0.14892  0.74106  1.0000
  O   O42       1.0  0.71385  0.18780  0.91160  1.0000
  H   H35       1.0  0.72475  0.18040  0.85460  1.0000
  C   C84       1.0  0.59490  0.17530  0.70006  1.0000
  C   C85       1.0  0.97550  0.94023  0.73376  1.0000
  C   C86       1.0  0.92425  0.94948  0.63080  1.0000
  C   C87       1.0  0.94455  0.88362  0.78765  1.0000
  C   C88       1.0  0.56175  0.99157  0.77410  1.0000
  H   H36       1.0  0.58030  0.02950  0.73810  1.0000
  O   O43       1.0  0.81825  0.98850  0.61135  1.0000
  C   C89       1.0  0.59185  0.93030  0.92030  1.0000
  H   H37       1.0  0.63155  0.92640  0.98260  1.0000
  C   C90       1.0  0.50520  0.87993  0.88150  1.0000
  H   H38       1.0  0.98635  0.84250  0.91850  1.0000
  O   O44       1.0  0.65130  0.76022  0.50079  1.0000
  N   N15       1.0  0.78610  0.82227  0.66353  1.0000
  O   O45       1.0  0.98875  0.91782  0.56738  1.0000
  N   N16       1.0  0.80965  0.77752  0.80924  1.0000
  C   C91       1.0  0.62710  0.73713  0.57974  1.0000
  C   C92       1.0  0.70365  0.76447  0.66699  1.0000
  C   C93       1.0  0.71730  0.73623  0.75694  1.0000
  C   C94       1.0  0.84885  0.82919  0.75135  1.0000
  C   C95       1.0  0.62000  0.98670  0.86690  1.0000
  H   H39       1.0  0.67760  0.02110  0.89330  1.0000
  O   O46       1.0  0.71375  0.65414  0.87686  1.0000
  O   O47       1.0  0.54320  0.64892  0.75894  1.0000
  O   O48       1.0  0.53615  0.68780  0.58840  1.0000
  H   H40       1.0  0.52525  0.68040  0.64540  1.0000
  C   C96       1.0  0.65510  0.67530  0.79994  1.0000
  Ba  Ba5       1.0  0.97187  0.60833  0.97045  1.0000
  Ba  Ba6       1.0  0.77813  0.10833  0.52955  1.0000
  Ba  Ba7       1.0  0.52813  0.39168  0.02955  1.0000
  Ba  Ba8       1.0  0.72188  0.89168  0.47045  1.0000
