data_image0
_chemical_formula_structural       CH2C2HC2H2C2H2CH2C2HP4OHO4HOHOHO5HCH2C2HC2H2C2H2CH2C2HP4OHO4HOHOHO5H2O4HOHOHO5HCH2C2HC2H2C2H2CH2C2HP4OCH2C2HC2H2C2H2CH2C2HP4OHO4HOHOHO5HPr4CH2C2HC2H2C2H2CH2C2HP4OHO4HOHOHO5HCH2C2HC2H2C2H2CH2C2HP4OHO4HOHOHO5H2O4HOHOHO5HCH2C2HC2H2C2H2CH2C2HP4OCH2C2HC2H2C2H2CH2C2HP4OHO4HOHOHO5HPr4
_chemical_formula_sum              "C80 H120 P32 O96 Pr8"
_cell_length_a       11.926
_cell_length_b       18.27
_cell_length_c       18.964
_cell_angle_alpha    90
_cell_angle_beta     95.62
_cell_angle_gamma    90

_space_group_name_H-M_alt    "P 1"
_space_group_IT_number       1

loop_
  _space_group_symop_operation_xyz
  'x, y, z'

loop_
  _atom_site_type_symbol
  _atom_site_label
  _atom_site_symmetry_multiplicity
  _atom_site_fract_x
  _atom_site_fract_y
  _atom_site_fract_z
  _atom_site_occupancy
  C   C1        1.0  0.29865  0.56550  0.81490  1.0000
  H   H1        1.0  0.37415  0.58850  0.82040  1.0000
  H   H2        1.0  0.29985  0.52610  0.77920  1.0000
  C   C2        1.0  0.21225  0.62190  0.78900  1.0000
  C   C3        1.0  0.22330  0.69330  0.81420  1.0000
  H   H3        1.0  0.28875  0.70560  0.84450  1.0000
  C   C4        1.0  0.14280  0.74810  0.79720  1.0000
  C   C5        1.0  0.15995  0.82230  0.83190  1.0000
  H   H4        1.0  0.12465  0.86040  0.79990  1.0000
  H   H5        1.0  0.24160  0.83290  0.83990  1.0000
  C   C6        1.0  0.04695  0.72960  0.75160  1.0000
  C   C7        1.0  0.45440  0.78300  0.72780  1.0000
  H   H6        1.0  0.44170  0.81530  0.76820  1.0000
  H   H7        1.0  0.38405  0.75520  0.71530  1.0000
  C   C8        1.0  0.09610  0.52920  0.71110  1.0000
  H   H8        1.0  0.01410  0.51940  0.70510  1.0000
  H   H9        1.0  0.13175  0.49200  0.74400  1.0000
  C   C9        1.0  0.11615  0.60410  0.74320  1.0000
  C   C10       1.0  0.03675  0.65780  0.72610  1.0000
  H   H10       1.0  0.47180  0.64530  0.69540  1.0000
  P   P1        1.0  0.15185  0.52037  0.62640  1.0000
  P   P2        1.0  0.09965  0.82571  0.91515  1.0000
  P   P3        1.0  0.26920  0.52669  0.89788  1.0000
  P   P4        1.0  0.48070  0.83904  0.65394  1.0000
  O   O1        1.0  0.28205  0.52790  0.64620  1.0000
  H   H11       1.0  0.31250  0.54600  0.61300  1.0000
  O   O2        1.0  0.10930  0.58420  0.57950  1.0000
  O   O3        1.0  0.12345  0.44650  0.59430  1.0000
  O   O4        1.0  0.13170  0.75960  0.95850  1.0000
  O   O5        1.0  0.14070  0.89850  0.94930  1.0000
  H   H12       1.0  0.13750  0.90800  0.99240  1.0000
  O   O6        1.0  0.46930  0.82820  0.89900  1.0000
  H   H13       1.0  0.44050  0.87000  0.89900  1.0000
  O   O7        1.0  0.13970  0.50710  0.88860  1.0000
  H   H14       1.0  0.13550  0.46140  0.88700  1.0000
  O   O8        1.0  0.28830  0.58340  0.95510  1.0000
  O   O9        1.0  0.33405  0.45580  0.90960  1.0000
  O   O10       1.0  0.04980  0.80010  0.60240  1.0000
  O   O11       1.0  0.36775  0.86550  0.61890  1.0000
  O   O12       1.0  0.04705  0.90640  0.68830  1.0000
  H   H15       1.0  0.08450  0.92400  0.65700  1.0000
  C   C11       1.0  0.20135  0.06550  0.68510  1.0000
  H   H16       1.0  0.12585  0.08850  0.67960  1.0000
  H   H17       1.0  0.20015  0.02610  0.72080  1.0000
  C   C12       1.0  0.28775  0.12190  0.71100  1.0000
  C   C13       1.0  0.27670  0.19330  0.68580  1.0000
  H   H18       1.0  0.21125  0.20560  0.65550  1.0000
  C   C14       1.0  0.35720  0.24810  0.70280  1.0000
  C   C15       1.0  0.34005  0.32230  0.66810  1.0000
  H   H19       1.0  0.37535  0.36040  0.70010  1.0000
  H   H20       1.0  0.25840  0.33290  0.66010  1.0000
  C   C16       1.0  0.45305  0.22960  0.74840  1.0000
  C   C17       1.0  0.04560  0.28300  0.77220  1.0000
  H   H21       1.0  0.05830  0.31530  0.73180  1.0000
  H   H22       1.0  0.11595  0.25520  0.78470  1.0000
  C   C18       1.0  0.40390  0.02920  0.78890  1.0000
  H   H23       1.0  0.48590  0.01940  0.79490  1.0000
  H   H24       1.0  0.36825  0.99200  0.75600  1.0000
  C   C19       1.0  0.38385  0.10410  0.75680  1.0000
  C   C20       1.0  0.46325  0.15780  0.77390  1.0000
  H   H25       1.0  0.02820  0.14530  0.80460  1.0000
  P   P5        1.0  0.34815  0.02037  0.87360  1.0000
  P   P6        1.0  0.40035  0.32571  0.58485  1.0000
  P   P7        1.0  0.23080  0.02669  0.60212  1.0000
  P   P8        1.0  0.01930  0.33904  0.84606  1.0000
  O   O13       1.0  0.21795  0.02790  0.85380  1.0000
  H   H26       1.0  0.18750  0.04600  0.88700  1.0000
  O   O14       1.0  0.39070  0.08420  0.92050  1.0000
  O   O15       1.0  0.37655  0.94650  0.90570  1.0000
  O   O16       1.0  0.36830  0.25960  0.54150  1.0000
  O   O17       1.0  0.35930  0.39850  0.55070  1.0000
  H   H27       1.0  0.36250  0.40800  0.50760  1.0000
  O   O18       1.0  0.03070  0.32820  0.60100  1.0000
  H   H28       1.0  0.05950  0.37000  0.60100  1.0000
  O   O19       1.0  0.36030  0.00710  0.61140  1.0000
  H   H29       1.0  0.36450  0.96140  0.61300  1.0000
  O   O20       1.0  0.21170  0.08340  0.54490  1.0000
  O   O21       1.0  0.16595  0.95580  0.59040  1.0000
  O   O22       1.0  0.45020  0.30010  0.89760  1.0000
  O   O23       1.0  0.13225  0.36550  0.88110  1.0000
  O   O24       1.0  0.45295  0.40640  0.81170  1.0000
  H   H30       1.0  0.41550  0.42400  0.84300  1.0000
  H   H31       1.0  0.18750  0.45400  0.38700  1.0000
  O   O25       1.0  0.39070  0.41580  0.42050  1.0000
  O   O26       1.0  0.37655  0.55350  0.40570  1.0000
  O   O27       1.0  0.36830  0.24040  0.04150  1.0000
  O   O28       1.0  0.35930  0.10150  0.05070  1.0000
  H   H32       1.0  0.36250  0.09200  0.00760  1.0000
  O   O29       1.0  0.03070  0.17180  0.10100  1.0000
  H   H33       1.0  0.05950  0.13000  0.10100  1.0000
  O   O30       1.0  0.36030  0.49290  0.11140  1.0000
  H   H34       1.0  0.36450  0.53860  0.11300  1.0000
  O   O31       1.0  0.21170  0.41660  0.04490  1.0000
  O   O32       1.0  0.16595  0.54420  0.09040  1.0000
  O   O33       1.0  0.45020  0.19990  0.39760  1.0000
  O   O34       1.0  0.13225  0.13450  0.38110  1.0000
  O   O35       1.0  0.45295  0.09360  0.31170  1.0000
  H   H35       1.0  0.41550  0.07600  0.34300  1.0000
  C   C21       1.0  0.20135  0.43450  0.18510  1.0000
  H   H36       1.0  0.12585  0.41150  0.17960  1.0000
  H   H37       1.0  0.20015  0.47390  0.22080  1.0000
  C   C22       1.0  0.28775  0.37810  0.21100  1.0000
  C   C23       1.0  0.27670  0.30670  0.18580  1.0000
  H   H38       1.0  0.21125  0.29440  0.15550  1.0000
  C   C24       1.0  0.35720  0.25190  0.20280  1.0000
  C   C25       1.0  0.34005  0.17770  0.16810  1.0000
  H   H39       1.0  0.37535  0.13960  0.20010  1.0000
  H   H40       1.0  0.25840  0.16710  0.16010  1.0000
  C   C26       1.0  0.45305  0.27040  0.24840  1.0000
  C   C27       1.0  0.04560  0.21700  0.27220  1.0000
  H   H41       1.0  0.05830  0.18470  0.23180  1.0000
  H   H42       1.0  0.11595  0.24480  0.28470  1.0000
  C   C28       1.0  0.40390  0.47080  0.28890  1.0000
  H   H43       1.0  0.48590  0.48060  0.29490  1.0000
  H   H44       1.0  0.36825  0.50800  0.25600  1.0000
  C   C29       1.0  0.38385  0.39590  0.25680  1.0000
  C   C30       1.0  0.46325  0.34220  0.27390  1.0000
  H   H45       1.0  0.02820  0.35470  0.30460  1.0000
  P   P9        1.0  0.34815  0.47963  0.37360  1.0000
  P   P10       1.0  0.40035  0.17429  0.08485  1.0000
  P   P11       1.0  0.23080  0.47331  0.10212  1.0000
  P   P12       1.0  0.01930  0.16096  0.34606  1.0000
  O   O36       1.0  0.21795  0.47210  0.35380  1.0000
  C   C31       1.0  0.29865  0.93450  0.31490  1.0000
  H   H46       1.0  0.37415  0.91150  0.32040  1.0000
  H   H47       1.0  0.29985  0.97390  0.27920  1.0000
  C   C32       1.0  0.21225  0.87810  0.28900  1.0000
  C   C33       1.0  0.22330  0.80670  0.31420  1.0000
  H   H48       1.0  0.28875  0.79440  0.34450  1.0000
  C   C34       1.0  0.14280  0.75190  0.29720  1.0000
  C   C35       1.0  0.15995  0.67770  0.33190  1.0000
  H   H49       1.0  0.12465  0.63960  0.29990  1.0000
  H   H50       1.0  0.24160  0.66710  0.33990  1.0000
  C   C36       1.0  0.04695  0.77040  0.25160  1.0000
  C   C37       1.0  0.45440  0.71700  0.22780  1.0000
  H   H51       1.0  0.44170  0.68470  0.26820  1.0000
  H   H52       1.0  0.38405  0.74480  0.21530  1.0000
  C   C38       1.0  0.09610  0.97080  0.21110  1.0000
  H   H53       1.0  0.01410  0.98060  0.20510  1.0000
  H   H54       1.0  0.13175  0.00800  0.24400  1.0000
  C   C39       1.0  0.11615  0.89590  0.24320  1.0000
  C   C40       1.0  0.03675  0.84220  0.22610  1.0000
  H   H55       1.0  0.47180  0.85470  0.19540  1.0000
  P   P13       1.0  0.15185  0.97963  0.12640  1.0000
  P   P14       1.0  0.09965  0.67429  0.41515  1.0000
  P   P15       1.0  0.26920  0.97331  0.39788  1.0000
  P   P16       1.0  0.48070  0.66096  0.15394  1.0000
  O   O37       1.0  0.28205  0.97210  0.14620  1.0000
  H   H56       1.0  0.31250  0.95400  0.11300  1.0000
  O   O38       1.0  0.10930  0.91580  0.07950  1.0000
  O   O39       1.0  0.12345  0.05350  0.09430  1.0000
  O   O40       1.0  0.13170  0.74040  0.45850  1.0000
  O   O41       1.0  0.14070  0.60150  0.44930  1.0000
  H   H57       1.0  0.13750  0.59200  0.49240  1.0000
  O   O42       1.0  0.46930  0.67180  0.39900  1.0000
  H   H58       1.0  0.44050  0.63000  0.39900  1.0000
  O   O43       1.0  0.13970  0.99290  0.38860  1.0000
  H   H59       1.0  0.13550  0.03860  0.38700  1.0000
  O   O44       1.0  0.28830  0.91660  0.45510  1.0000
  O   O45       1.0  0.33405  0.04420  0.40960  1.0000
  O   O46       1.0  0.04980  0.69990  0.10240  1.0000
  O   O47       1.0  0.36775  0.63450  0.11890  1.0000
  O   O48       1.0  0.04705  0.59360  0.18830  1.0000
  H   H60       1.0  0.08450  0.57600  0.15700  1.0000
  Pr  Pr1       1.0  0.20630  0.66677  0.03429  1.0000
  Pr  Pr2       1.0  0.20630  0.83323  0.53429  1.0000
  Pr  Pr3       1.0  0.29370  0.16677  0.46571  1.0000
  Pr  Pr4       1.0  0.29370  0.33323  0.96571  1.0000
  C   C41       1.0  0.79865  0.56550  0.81490  1.0000
  H   H61       1.0  0.87415  0.58850  0.82040  1.0000
  H   H62       1.0  0.79985  0.52610  0.77920  1.0000
  C   C42       1.0  0.71225  0.62190  0.78900  1.0000
  C   C43       1.0  0.72330  0.69330  0.81420  1.0000
  H   H63       1.0  0.78875  0.70560  0.84450  1.0000
  C   C44       1.0  0.64280  0.74810  0.79720  1.0000
  C   C45       1.0  0.65995  0.82230  0.83190  1.0000
  H   H64       1.0  0.62465  0.86040  0.79990  1.0000
  H   H65       1.0  0.74160  0.83290  0.83990  1.0000
  C   C46       1.0  0.54695  0.72960  0.75160  1.0000
  C   C47       1.0  0.95440  0.78300  0.72780  1.0000
  H   H66       1.0  0.94170  0.81530  0.76820  1.0000
  H   H67       1.0  0.88405  0.75520  0.71530  1.0000
  C   C48       1.0  0.59610  0.52920  0.71110  1.0000
  H   H68       1.0  0.51410  0.51940  0.70510  1.0000
  H   H69       1.0  0.63175  0.49200  0.74400  1.0000
  C   C49       1.0  0.61615  0.60410  0.74320  1.0000
  C   C50       1.0  0.53675  0.65780  0.72610  1.0000
  H   H70       1.0  0.97180  0.64530  0.69540  1.0000
  P   P17       1.0  0.65185  0.52037  0.62640  1.0000
  P   P18       1.0  0.59965  0.82571  0.91515  1.0000
  P   P19       1.0  0.76920  0.52669  0.89788  1.0000
  P   P20       1.0  0.98070  0.83904  0.65394  1.0000
  O   O49       1.0  0.78205  0.52790  0.64620  1.0000
  H   H71       1.0  0.81250  0.54600  0.61300  1.0000
  O   O50       1.0  0.60930  0.58420  0.57950  1.0000
  O   O51       1.0  0.62345  0.44650  0.59430  1.0000
  O   O52       1.0  0.63170  0.75960  0.95850  1.0000
  O   O53       1.0  0.64070  0.89850  0.94930  1.0000
  H   H72       1.0  0.63750  0.90800  0.99240  1.0000
  O   O54       1.0  0.96930  0.82820  0.89900  1.0000
  H   H73       1.0  0.94050  0.87000  0.89900  1.0000
  O   O55       1.0  0.63970  0.50710  0.88860  1.0000
  H   H74       1.0  0.63550  0.46140  0.88700  1.0000
  O   O56       1.0  0.78830  0.58340  0.95510  1.0000
  O   O57       1.0  0.83405  0.45580  0.90960  1.0000
  O   O58       1.0  0.54980  0.80010  0.60240  1.0000
  O   O59       1.0  0.86775  0.86550  0.61890  1.0000
  O   O60       1.0  0.54705  0.90640  0.68830  1.0000
  H   H75       1.0  0.58450  0.92400  0.65700  1.0000
  C   C51       1.0  0.70135  0.06550  0.68510  1.0000
  H   H76       1.0  0.62585  0.08850  0.67960  1.0000
  H   H77       1.0  0.70015  0.02610  0.72080  1.0000
  C   C52       1.0  0.78775  0.12190  0.71100  1.0000
  C   C53       1.0  0.77670  0.19330  0.68580  1.0000
  H   H78       1.0  0.71125  0.20560  0.65550  1.0000
  C   C54       1.0  0.85720  0.24810  0.70280  1.0000
  C   C55       1.0  0.84005  0.32230  0.66810  1.0000
  H   H79       1.0  0.87535  0.36040  0.70010  1.0000
  H   H80       1.0  0.75840  0.33290  0.66010  1.0000
  C   C56       1.0  0.95305  0.22960  0.74840  1.0000
  C   C57       1.0  0.54560  0.28300  0.77220  1.0000
  H   H81       1.0  0.55830  0.31530  0.73180  1.0000
  H   H82       1.0  0.61595  0.25520  0.78470  1.0000
  C   C58       1.0  0.90390  0.02920  0.78890  1.0000
  H   H83       1.0  0.98590  0.01940  0.79490  1.0000
  H   H84       1.0  0.86825  0.99200  0.75600  1.0000
  C   C59       1.0  0.88385  0.10410  0.75680  1.0000
  C   C60       1.0  0.96325  0.15780  0.77390  1.0000
  H   H85       1.0  0.52820  0.14530  0.80460  1.0000
  P   P21       1.0  0.84815  0.02037  0.87360  1.0000
  P   P22       1.0  0.90035  0.32571  0.58485  1.0000
  P   P23       1.0  0.73080  0.02669  0.60212  1.0000
  P   P24       1.0  0.51930  0.33904  0.84606  1.0000
  O   O61       1.0  0.71795  0.02790  0.85380  1.0000
  H   H86       1.0  0.68750  0.04600  0.88700  1.0000
  O   O62       1.0  0.89070  0.08420  0.92050  1.0000
  O   O63       1.0  0.87655  0.94650  0.90570  1.0000
  O   O64       1.0  0.86830  0.25960  0.54150  1.0000
  O   O65       1.0  0.85930  0.39850  0.55070  1.0000
  H   H87       1.0  0.86250  0.40800  0.50760  1.0000
  O   O66       1.0  0.53070  0.32820  0.60100  1.0000
  H   H88       1.0  0.55950  0.37000  0.60100  1.0000
  O   O67       1.0  0.86030  0.00710  0.61140  1.0000
  H   H89       1.0  0.86450  0.96140  0.61300  1.0000
  O   O68       1.0  0.71170  0.08340  0.54490  1.0000
  O   O69       1.0  0.66595  0.95580  0.59040  1.0000
  O   O70       1.0  0.95020  0.30010  0.89760  1.0000
  O   O71       1.0  0.63225  0.36550  0.88110  1.0000
  O   O72       1.0  0.95295  0.40640  0.81170  1.0000
  H   H90       1.0  0.91550  0.42400  0.84300  1.0000
  H   H91       1.0  0.68750  0.45400  0.38700  1.0000
  O   O73       1.0  0.89070  0.41580  0.42050  1.0000
  O   O74       1.0  0.87655  0.55350  0.40570  1.0000
  O   O75       1.0  0.86830  0.24040  0.04150  1.0000
  O   O76       1.0  0.85930  0.10150  0.05070  1.0000
  H   H92       1.0  0.86250  0.09200  0.00760  1.0000
  O   O77       1.0  0.53070  0.17180  0.10100  1.0000
  H   H93       1.0  0.55950  0.13000  0.10100  1.0000
  O   O78       1.0  0.86030  0.49290  0.11140  1.0000
  H   H94       1.0  0.86450  0.53860  0.11300  1.0000
  O   O79       1.0  0.71170  0.41660  0.04490  1.0000
  O   O80       1.0  0.66595  0.54420  0.09040  1.0000
  O   O81       1.0  0.95020  0.19990  0.39760  1.0000
  O   O82       1.0  0.63225  0.13450  0.38110  1.0000
  O   O83       1.0  0.95295  0.09360  0.31170  1.0000
  H   H95       1.0  0.91550  0.07600  0.34300  1.0000
  C   C61       1.0  0.70135  0.43450  0.18510  1.0000
  H   H96       1.0  0.62585  0.41150  0.17960  1.0000
  H   H97       1.0  0.70015  0.47390  0.22080  1.0000
  C   C62       1.0  0.78775  0.37810  0.21100  1.0000
  C   C63       1.0  0.77670  0.30670  0.18580  1.0000
  H   H98       1.0  0.71125  0.29440  0.15550  1.0000
  C   C64       1.0  0.85720  0.25190  0.20280  1.0000
  C   C65       1.0  0.84005  0.17770  0.16810  1.0000
  H   H99       1.0  0.87535  0.13960  0.20010  1.0000
  H   H100      1.0  0.75840  0.16710  0.16010  1.0000
  C   C66       1.0  0.95305  0.27040  0.24840  1.0000
  C   C67       1.0  0.54560  0.21700  0.27220  1.0000
  H   H101      1.0  0.55830  0.18470  0.23180  1.0000
  H   H102      1.0  0.61595  0.24480  0.28470  1.0000
  C   C68       1.0  0.90390  0.47080  0.28890  1.0000
  H   H103      1.0  0.98590  0.48060  0.29490  1.0000
  H   H104      1.0  0.86825  0.50800  0.25600  1.0000
  C   C69       1.0  0.88385  0.39590  0.25680  1.0000
  C   C70       1.0  0.96325  0.34220  0.27390  1.0000
  H   H105      1.0  0.52820  0.35470  0.30460  1.0000
  P   P25       1.0  0.84815  0.47963  0.37360  1.0000
  P   P26       1.0  0.90035  0.17429  0.08485  1.0000
  P   P27       1.0  0.73080  0.47331  0.10212  1.0000
  P   P28       1.0  0.51930  0.16096  0.34606  1.0000
  O   O84       1.0  0.71795  0.47210  0.35380  1.0000
  C   C71       1.0  0.79865  0.93450  0.31490  1.0000
  H   H106      1.0  0.87415  0.91150  0.32040  1.0000
  H   H107      1.0  0.79985  0.97390  0.27920  1.0000
  C   C72       1.0  0.71225  0.87810  0.28900  1.0000
  C   C73       1.0  0.72330  0.80670  0.31420  1.0000
  H   H108      1.0  0.78875  0.79440  0.34450  1.0000
  C   C74       1.0  0.64280  0.75190  0.29720  1.0000
  C   C75       1.0  0.65995  0.67770  0.33190  1.0000
  H   H109      1.0  0.62465  0.63960  0.29990  1.0000
  H   H110      1.0  0.74160  0.66710  0.33990  1.0000
  C   C76       1.0  0.54695  0.77040  0.25160  1.0000
  C   C77       1.0  0.95440  0.71700  0.22780  1.0000
  H   H111      1.0  0.94170  0.68470  0.26820  1.0000
  H   H112      1.0  0.88405  0.74480  0.21530  1.0000
  C   C78       1.0  0.59610  0.97080  0.21110  1.0000
  H   H113      1.0  0.51410  0.98060  0.20510  1.0000
  H   H114      1.0  0.63175  0.00800  0.24400  1.0000
  C   C79       1.0  0.61615  0.89590  0.24320  1.0000
  C   C80       1.0  0.53675  0.84220  0.22610  1.0000
  H   H115      1.0  0.97180  0.85470  0.19540  1.0000
  P   P29       1.0  0.65185  0.97963  0.12640  1.0000
  P   P30       1.0  0.59965  0.67429  0.41515  1.0000
  P   P31       1.0  0.76920  0.97331  0.39788  1.0000
  P   P32       1.0  0.98070  0.66096  0.15394  1.0000
  O   O85       1.0  0.78205  0.97210  0.14620  1.0000
  H   H116      1.0  0.81250  0.95400  0.11300  1.0000
  O   O86       1.0  0.60930  0.91580  0.07950  1.0000
  O   O87       1.0  0.62345  0.05350  0.09430  1.0000
  O   O88       1.0  0.63170  0.74040  0.45850  1.0000
  O   O89       1.0  0.64070  0.60150  0.44930  1.0000
  H   H117      1.0  0.63750  0.59200  0.49240  1.0000
  O   O90       1.0  0.96930  0.67180  0.39900  1.0000
  H   H118      1.0  0.94050  0.63000  0.39900  1.0000
  O   O91       1.0  0.63970  0.99290  0.38860  1.0000
  H   H119      1.0  0.63550  0.03860  0.38700  1.0000
  O   O92       1.0  0.78830  0.91660  0.45510  1.0000
  O   O93       1.0  0.83405  0.04420  0.40960  1.0000
  O   O94       1.0  0.54980  0.69990  0.10240  1.0000
  O   O95       1.0  0.86775  0.63450  0.11890  1.0000
  O   O96       1.0  0.54705  0.59360  0.18830  1.0000
  H   H120      1.0  0.58450  0.57600  0.15700  1.0000
  Pr  Pr5       1.0  0.70630  0.66677  0.03429  1.0000
  Pr  Pr6       1.0  0.70630  0.83323  0.53429  1.0000
  Pr  Pr7       1.0  0.79370  0.16677  0.46571  1.0000
  Pr  Pr8       1.0  0.79370  0.33323  0.96571  1.0000
