data_image0
_chemical_formula_structural       C2H2C4HCHC3HCHCHCHCHNHNHO3SC2H2C4HCHC3HCHCHCHCHNHNHO3SC2H2C4HCHC3HCHCHCHCHNHNHO3SNHNHO3SC2H2C4HCHC3HCHCHCHCHC2H2C4HCHC3HCHCHCHCHNHNHO3SC2H2C4HCHC3HCHCHCHCHNHNHO3SC2H2C4HCHC3HCHCHCHCHNHNHO3SC3HCHCHCHCHNHNHO3SC2H2C4HCHNO4NO4NONO3Pr4
_chemical_formula_sum              "C112 H88 N20 O36 S8 Pr4"
_cell_length_a       31.9646
_cell_length_b       13.0737
_cell_length_c       8.7611
_cell_angle_alpha    90
_cell_angle_beta     94.385
_cell_angle_gamma    90

_space_group_name_H-M_alt    "P 1"
_space_group_IT_number       1

loop_
  _space_group_symop_operation_xyz
  'x, y, z'

loop_
  _atom_site_type_symbol
  _atom_site_label
  _atom_site_symmetry_multiplicity
  _atom_site_fract_x
  _atom_site_fract_y
  _atom_site_fract_z
  _atom_site_occupancy
  C   C1        1.0  0.57249  0.56740  0.57180  1.0000
  C   C2        1.0  0.60898  0.60440  0.48790  1.0000
  H   H1        1.0  0.61370  0.55810  0.40450  1.0000
  H   H2        1.0  0.60280  0.67160  0.44510  1.0000
  C   C3        1.0  0.68152  0.65040  0.56230  1.0000
  C   C4        1.0  0.71274  0.61020  0.82290  1.0000
  C   C5        1.0  0.75207  0.61320  0.92480  1.0000
  C   C6        1.0  0.74712  0.61410  0.08350  1.0000
  H   H3        1.0  0.72040  0.61160  0.11820  1.0000
  C   C7        1.0  0.78122  0.61840  0.18590  1.0000
  H   H4        1.0  0.77770  0.61920  0.29020  1.0000
  C   C8        1.0  0.82153  0.62180  0.13510  1.0000
  C   C9        1.0  0.82715  0.61750  0.97800  1.0000
  C   C10       1.0  0.79110  0.61270  0.87210  1.0000
  H   H5        1.0  0.79420  0.60930  0.76750  1.0000
  C   C11       1.0  0.85810  0.62960  0.24020  1.0000
  H   H6        1.0  0.85510  0.63290  0.34490  1.0000
  C   C12       1.0  0.89650  0.63230  0.18820  1.0000
  H   H7        1.0  0.91990  0.63810  0.25750  1.0000
  C   C13       1.0  0.90189  0.62650  0.03050  1.0000
  H   H8        1.0  0.92880  0.62790  0.99750  1.0000
  C   C14       1.0  0.86793  0.61860  0.92410  1.0000
  H   H9        1.0  0.87160  0.61410  0.82000  1.0000
  N   N1        1.0  0.64621  0.60940  0.59270  1.0000
  H   H10       1.0  0.64390  0.58700  0.68200  1.0000
  N   N2        1.0  0.71441  0.64540  0.67590  1.0000
  H   H11       1.0  0.73670  0.67600  0.65400  1.0000
  O   O1        1.0  0.54013  0.53430  0.49290  1.0000
  O   O2        1.0  0.57386  0.57210  0.71430  1.0000
  O   O3        1.0  0.67985  0.57940  0.87000  1.0000
  S   S1        1.0  0.68982  0.71008  0.39724  1.0000
  C   C15       1.0  0.07249  0.06740  0.57180  1.0000
  C   C16       1.0  0.10898  0.10440  0.48790  1.0000
  H   H12       1.0  0.11370  0.05810  0.40450  1.0000
  H   H13       1.0  0.10280  0.17160  0.44510  1.0000
  C   C17       1.0  0.18152  0.15040  0.56230  1.0000
  C   C18       1.0  0.21274  0.11020  0.82290  1.0000
  C   C19       1.0  0.25207  0.11320  0.92480  1.0000
  C   C20       1.0  0.24712  0.11410  0.08350  1.0000
  H   H14       1.0  0.22040  0.11160  0.11820  1.0000
  C   C21       1.0  0.28122  0.11840  0.18590  1.0000
  H   H15       1.0  0.27770  0.11920  0.29020  1.0000
  C   C22       1.0  0.32153  0.12180  0.13510  1.0000
  C   C23       1.0  0.32715  0.11750  0.97800  1.0000
  C   C24       1.0  0.29110  0.11270  0.87210  1.0000
  H   H16       1.0  0.29420  0.10930  0.76750  1.0000
  C   C25       1.0  0.35810  0.12960  0.24020  1.0000
  H   H17       1.0  0.35510  0.13290  0.34490  1.0000
  C   C26       1.0  0.39650  0.13230  0.18820  1.0000
  H   H18       1.0  0.41990  0.13810  0.25750  1.0000
  C   C27       1.0  0.40189  0.12650  0.03050  1.0000
  H   H19       1.0  0.42880  0.12790  0.99750  1.0000
  C   C28       1.0  0.36793  0.11860  0.92410  1.0000
  H   H20       1.0  0.37160  0.11410  0.82000  1.0000
  N   N3        1.0  0.14621  0.10940  0.59270  1.0000
  H   H21       1.0  0.14390  0.08700  0.68200  1.0000
  N   N4        1.0  0.21441  0.14540  0.67590  1.0000
  H   H22       1.0  0.23670  0.17600  0.65400  1.0000
  O   O4        1.0  0.04013  0.03430  0.49290  1.0000
  O   O5        1.0  0.07386  0.07210  0.71430  1.0000
  O   O6        1.0  0.17985  0.07940  0.87000  1.0000
  S   S2        1.0  0.18982  0.21008  0.39724  1.0000
  C   C29       1.0  0.42751  0.56740  0.92820  1.0000
  C   C30       1.0  0.39102  0.60440  0.01210  1.0000
  H   H23       1.0  0.38630  0.55810  0.09550  1.0000
  H   H24       1.0  0.39720  0.67160  0.05490  1.0000
  C   C31       1.0  0.31848  0.65040  0.93770  1.0000
  C   C32       1.0  0.28726  0.61020  0.67710  1.0000
  C   C33       1.0  0.24793  0.61320  0.57520  1.0000
  C   C34       1.0  0.25288  0.61410  0.41650  1.0000
  H   H25       1.0  0.27960  0.61160  0.38180  1.0000
  C   C35       1.0  0.21878  0.61840  0.31410  1.0000
  H   H26       1.0  0.22230  0.61920  0.20980  1.0000
  C   C36       1.0  0.17847  0.62180  0.36490  1.0000
  C   C37       1.0  0.17285  0.61750  0.52200  1.0000
  C   C38       1.0  0.20890  0.61270  0.62790  1.0000
  H   H27       1.0  0.20580  0.60930  0.73250  1.0000
  C   C39       1.0  0.14190  0.62960  0.25980  1.0000
  H   H28       1.0  0.14490  0.63290  0.15510  1.0000
  C   C40       1.0  0.10350  0.63230  0.31180  1.0000
  H   H29       1.0  0.08010  0.63810  0.24250  1.0000
  C   C41       1.0  0.09811  0.62650  0.46950  1.0000
  H   H30       1.0  0.07120  0.62790  0.50250  1.0000
  C   C42       1.0  0.13207  0.61860  0.57590  1.0000
  H   H31       1.0  0.12840  0.61410  0.68000  1.0000
  N   N5        1.0  0.35379  0.60940  0.90730  1.0000
  H   H32       1.0  0.35610  0.58700  0.81800  1.0000
  N   N6        1.0  0.28559  0.64540  0.82410  1.0000
  H   H33       1.0  0.26330  0.67600  0.84600  1.0000
  O   O7        1.0  0.45987  0.53430  0.00710  1.0000
  O   O8        1.0  0.42614  0.57210  0.78570  1.0000
  O   O9        1.0  0.32015  0.57940  0.63000  1.0000
  S   S3        1.0  0.31018  0.71008  0.10276  1.0000
  N   N7        1.0  0.85379  0.10940  0.90730  1.0000
  H   H34       1.0  0.85610  0.08700  0.81800  1.0000
  N   N8        1.0  0.78559  0.14540  0.82410  1.0000
  H   H35       1.0  0.76330  0.17600  0.84600  1.0000
  O   O10       1.0  0.95987  0.03430  0.00710  1.0000
  O   O11       1.0  0.92614  0.07210  0.78570  1.0000
  O   O12       1.0  0.82015  0.07940  0.63000  1.0000
  S   S4        1.0  0.81018  0.21008  0.10276  1.0000
  C   C43       1.0  0.92751  0.06740  0.92820  1.0000
  C   C44       1.0  0.89102  0.10440  0.01210  1.0000
  H   H36       1.0  0.88630  0.05810  0.09550  1.0000
  H   H37       1.0  0.89720  0.17160  0.05490  1.0000
  C   C45       1.0  0.81848  0.15040  0.93770  1.0000
  C   C46       1.0  0.78726  0.11020  0.67710  1.0000
  C   C47       1.0  0.74793  0.11320  0.57520  1.0000
  C   C48       1.0  0.75288  0.11410  0.41650  1.0000
  H   H38       1.0  0.77960  0.11160  0.38180  1.0000
  C   C49       1.0  0.71878  0.11840  0.31410  1.0000
  H   H39       1.0  0.72230  0.11920  0.20980  1.0000
  C   C50       1.0  0.67847  0.12180  0.36490  1.0000
  C   C51       1.0  0.67285  0.11750  0.52200  1.0000
  C   C52       1.0  0.70890  0.11270  0.62790  1.0000
  H   H40       1.0  0.70580  0.10930  0.73250  1.0000
  C   C53       1.0  0.64190  0.12960  0.25980  1.0000
  H   H41       1.0  0.64490  0.13290  0.15510  1.0000
  C   C54       1.0  0.60350  0.13230  0.31180  1.0000
  H   H42       1.0  0.58010  0.13810  0.24250  1.0000
  C   C55       1.0  0.59811  0.12650  0.46950  1.0000
  H   H43       1.0  0.57120  0.12790  0.50250  1.0000
  C   C56       1.0  0.63207  0.11860  0.57590  1.0000
  H   H44       1.0  0.62840  0.11410  0.68000  1.0000
  C   C57       1.0  0.42751  0.43260  0.42820  1.0000
  C   C58       1.0  0.39102  0.39560  0.51210  1.0000
  H   H45       1.0  0.38630  0.44190  0.59550  1.0000
  H   H46       1.0  0.39720  0.32840  0.55490  1.0000
  C   C59       1.0  0.31848  0.34960  0.43770  1.0000
  C   C60       1.0  0.28726  0.38980  0.17710  1.0000
  C   C61       1.0  0.24793  0.38680  0.07520  1.0000
  C   C62       1.0  0.25288  0.38590  0.91650  1.0000
  H   H47       1.0  0.27960  0.38840  0.88180  1.0000
  C   C63       1.0  0.21878  0.38160  0.81410  1.0000
  H   H48       1.0  0.22230  0.38080  0.70980  1.0000
  C   C64       1.0  0.17847  0.37820  0.86490  1.0000
  C   C65       1.0  0.17285  0.38250  0.02200  1.0000
  C   C66       1.0  0.20890  0.38730  0.12790  1.0000
  H   H49       1.0  0.20580  0.39070  0.23250  1.0000
  C   C67       1.0  0.14190  0.37040  0.75980  1.0000
  H   H50       1.0  0.14490  0.36710  0.65510  1.0000
  C   C68       1.0  0.10350  0.36770  0.81180  1.0000
  H   H51       1.0  0.08010  0.36190  0.74250  1.0000
  C   C69       1.0  0.09811  0.37350  0.96950  1.0000
  H   H52       1.0  0.07120  0.37210  0.00250  1.0000
  C   C70       1.0  0.13207  0.38140  0.07590  1.0000
  H   H53       1.0  0.12840  0.38590  0.18000  1.0000
  N   N9        1.0  0.35379  0.39060  0.40730  1.0000
  H   H54       1.0  0.35610  0.41300  0.31800  1.0000
  N   N10       1.0  0.28559  0.35460  0.32410  1.0000
  H   H55       1.0  0.26330  0.32400  0.34600  1.0000
  O   O13       1.0  0.45987  0.46570  0.50710  1.0000
  O   O14       1.0  0.42614  0.42790  0.28570  1.0000
  O   O15       1.0  0.32015  0.42060  0.13000  1.0000
  S   S5        1.0  0.31018  0.28992  0.60276  1.0000
  C   C71       1.0  0.92751  0.93260  0.42820  1.0000
  C   C72       1.0  0.89102  0.89560  0.51210  1.0000
  H   H56       1.0  0.88630  0.94190  0.59550  1.0000
  H   H57       1.0  0.89720  0.82840  0.55490  1.0000
  C   C73       1.0  0.81848  0.84960  0.43770  1.0000
  C   C74       1.0  0.78726  0.88980  0.17710  1.0000
  C   C75       1.0  0.74793  0.88680  0.07520  1.0000
  C   C76       1.0  0.75288  0.88590  0.91650  1.0000
  H   H58       1.0  0.77960  0.88840  0.88180  1.0000
  C   C77       1.0  0.71878  0.88160  0.81410  1.0000
  H   H59       1.0  0.72230  0.88080  0.70980  1.0000
  C   C78       1.0  0.67847  0.87820  0.86490  1.0000
  C   C79       1.0  0.67285  0.88250  0.02200  1.0000
  C   C80       1.0  0.70890  0.88730  0.12790  1.0000
  H   H60       1.0  0.70580  0.89070  0.23250  1.0000
  C   C81       1.0  0.64190  0.87040  0.75980  1.0000
  H   H61       1.0  0.64490  0.86710  0.65510  1.0000
  C   C82       1.0  0.60350  0.86770  0.81180  1.0000
  H   H62       1.0  0.58010  0.86190  0.74250  1.0000
  C   C83       1.0  0.59811  0.87350  0.96950  1.0000
  H   H63       1.0  0.57120  0.87210  0.00250  1.0000
  C   C84       1.0  0.63207  0.88140  0.07590  1.0000
  H   H64       1.0  0.62840  0.88590  0.18000  1.0000
  N   N11       1.0  0.85379  0.89060  0.40730  1.0000
  H   H65       1.0  0.85610  0.91300  0.31800  1.0000
  N   N12       1.0  0.78559  0.85460  0.32410  1.0000
  H   H66       1.0  0.76330  0.82400  0.34600  1.0000
  O   O16       1.0  0.95987  0.96570  0.50710  1.0000
  O   O17       1.0  0.92614  0.92790  0.28570  1.0000
  O   O18       1.0  0.82015  0.92060  0.13000  1.0000
  S   S6        1.0  0.81018  0.78992  0.60276  1.0000
  C   C85       1.0  0.57249  0.43260  0.07180  1.0000
  C   C86       1.0  0.60898  0.39560  0.98790  1.0000
  H   H67       1.0  0.61370  0.44190  0.90450  1.0000
  H   H68       1.0  0.60280  0.32840  0.94510  1.0000
  C   C87       1.0  0.68152  0.34960  0.06230  1.0000
  C   C88       1.0  0.71274  0.38980  0.32290  1.0000
  C   C89       1.0  0.75207  0.38680  0.42480  1.0000
  C   C90       1.0  0.74712  0.38590  0.58350  1.0000
  H   H69       1.0  0.72040  0.38840  0.61820  1.0000
  C   C91       1.0  0.78122  0.38160  0.68590  1.0000
  H   H70       1.0  0.77770  0.38080  0.79020  1.0000
  C   C92       1.0  0.82153  0.37820  0.63510  1.0000
  C   C93       1.0  0.82715  0.38250  0.47800  1.0000
  C   C94       1.0  0.79110  0.38730  0.37210  1.0000
  H   H71       1.0  0.79420  0.39070  0.26750  1.0000
  C   C95       1.0  0.85810  0.37040  0.74020  1.0000
  H   H72       1.0  0.85510  0.36710  0.84490  1.0000
  C   C96       1.0  0.89650  0.36770  0.68820  1.0000
  H   H73       1.0  0.91990  0.36190  0.75750  1.0000
  C   C97       1.0  0.90189  0.37350  0.53050  1.0000
  H   H74       1.0  0.92880  0.37210  0.49750  1.0000
  C   C98       1.0  0.86793  0.38140  0.42410  1.0000
  H   H75       1.0  0.87160  0.38590  0.32000  1.0000
  N   N13       1.0  0.64621  0.39060  0.09270  1.0000
  H   H76       1.0  0.64390  0.41300  0.18200  1.0000
  N   N14       1.0  0.71441  0.35460  0.17590  1.0000
  H   H77       1.0  0.73670  0.32400  0.15400  1.0000
  O   O19       1.0  0.54013  0.46570  0.99290  1.0000
  O   O20       1.0  0.57386  0.42790  0.21430  1.0000
  O   O21       1.0  0.67985  0.42060  0.37000  1.0000
  S   S7        1.0  0.68982  0.28992  0.89724  1.0000
  C   C99       1.0  0.32153  0.87820  0.63510  1.0000
  C   C100      1.0  0.32715  0.88250  0.47800  1.0000
  C   C101      1.0  0.29110  0.88730  0.37210  1.0000
  H   H78       1.0  0.29420  0.89070  0.26750  1.0000
  C   C102      1.0  0.35810  0.87040  0.74020  1.0000
  H   H79       1.0  0.35510  0.86710  0.84490  1.0000
  C   C103      1.0  0.39650  0.86770  0.68820  1.0000
  H   H80       1.0  0.41990  0.86190  0.75750  1.0000
  C   C104      1.0  0.40189  0.87350  0.53050  1.0000
  H   H81       1.0  0.42880  0.87210  0.49750  1.0000
  C   C105      1.0  0.36793  0.88140  0.42410  1.0000
  H   H82       1.0  0.37160  0.88590  0.32000  1.0000
  N   N15       1.0  0.14621  0.89060  0.09270  1.0000
  H   H83       1.0  0.14390  0.91300  0.18200  1.0000
  N   N16       1.0  0.21441  0.85460  0.17590  1.0000
  H   H84       1.0  0.23670  0.82400  0.15400  1.0000
  O   O22       1.0  0.04013  0.96570  0.99290  1.0000
  O   O23       1.0  0.07386  0.92790  0.21430  1.0000
  O   O24       1.0  0.17985  0.92060  0.37000  1.0000
  S   S8        1.0  0.18982  0.78992  0.89724  1.0000
  C   C106      1.0  0.07249  0.93260  0.07180  1.0000
  C   C107      1.0  0.10898  0.89560  0.98790  1.0000
  H   H85       1.0  0.11370  0.94190  0.90450  1.0000
  H   H86       1.0  0.10280  0.82840  0.94510  1.0000
  C   C108      1.0  0.18152  0.84960  0.06230  1.0000
  C   C109      1.0  0.21274  0.88980  0.32290  1.0000
  C   C110      1.0  0.25207  0.88680  0.42480  1.0000
  C   C111      1.0  0.24712  0.88590  0.58350  1.0000
  H   H87       1.0  0.22040  0.88840  0.61820  1.0000
  C   C112      1.0  0.28122  0.88160  0.68590  1.0000
  H   H88       1.0  0.27770  0.88080  0.79020  1.0000
  N   N17       1.0  0.50000  0.25740  0.25000  1.0000
  O   O25       1.0  0.50000  0.16370  0.25000  1.0000
  O   O26       1.0  0.50670  0.30810  0.37130  1.0000
  O   O27       1.0  0.49330  0.30810  0.12870  1.0000
  O   O28       1.0  0.99330  0.80810  0.12870  1.0000
  N   N18       1.0  0.00000  0.75740  0.25000  1.0000
  O   O29       1.0  0.00000  0.66370  0.25000  1.0000
  O   O30       1.0  0.00670  0.80810  0.37130  1.0000
  O   O31       1.0  0.49330  0.69190  0.62870  1.0000
  O   O32       1.0  0.50670  0.69190  0.87130  1.0000
  N   N19       1.0  0.50000  0.74260  0.75000  1.0000
  O   O33       1.0  0.50000  0.83630  0.75000  1.0000
  N   N20       1.0  0.00000  0.24260  0.75000  1.0000
  O   O34       1.0  0.00000  0.33630  0.75000  1.0000
  O   O35       1.0  0.99330  0.19190  0.62870  1.0000
  O   O36       1.0  0.00670  0.19190  0.87130  1.0000
  Pr  Pr1       1.0  0.50000  0.50783  0.75000  1.0000
  Pr  Pr2       1.0  0.50000  0.49217  0.25000  1.0000
  Pr  Pr3       1.0  0.00000  0.00783  0.75000  1.0000
  Pr  Pr4       1.0  0.00000  0.99217  0.25000  1.0000
