data_image0
_chemical_formula_structural       P2O6N2CH2CH2CH2C2HCHCHCHP2O6N2CH2CH2CH2C2HCHCHCHN3HNHCHCHC3HCHCHCHC3HCHN3HNHCl2Cd4
_chemical_formula_sum              "P4 O12 N12 C28 H32 Cl2 Cd4"
_cell_length_a       9.9803
_cell_length_b       10.0899
_cell_length_c       12.3539
_cell_angle_alpha    85.497
_cell_angle_beta     79.71
_cell_angle_gamma    86.254

_space_group_name_H-M_alt    "P 1"
_space_group_IT_number       1

loop_
  _space_group_symop_operation_xyz
  'x, y, z'

loop_
  _atom_site_type_symbol
  _atom_site_label
  _atom_site_symmetry_multiplicity
  _atom_site_fract_x
  _atom_site_fract_y
  _atom_site_fract_z
  _atom_site_occupancy
  P   P1        1.0  0.43050  0.60720  0.65409  1.0000
  P   P2        1.0  0.97250  0.60390  0.64454  1.0000
  O   O1        1.0  0.55170  0.62240  0.56400  1.0000
  O   O2        1.0  0.45740  0.66940  0.75730  1.0000
  O   O3        1.0  0.38130  0.46680  0.68100  1.0000
  O   O4        1.0  0.94760  0.69120  0.74370  1.0000
  O   O5        1.0  0.83610  0.59310  0.60700  1.0000
  O   O6        1.0  0.04320  0.47190  0.67190  1.0000
  N   N1        1.0  0.22960  0.64800  0.52640  1.0000
  N   N2        1.0  0.30750  0.10110  0.31360  1.0000
  C   C1        1.0  0.28420  0.70390  0.61760  1.0000
  H   H1        1.0  0.21289  0.70712  0.68204  1.0000
  H   H2        1.0  0.30978  0.79439  0.59500  1.0000
  C   C2        1.0  0.08340  0.68820  0.53050  1.0000
  H   H3        1.0  0.05681  0.66905  0.46183  1.0000
  H   H4        1.0  0.07074  0.78351  0.53719  1.0000
  C   C3        1.0  0.30990  0.68390  0.41760  1.0000
  H   H5        1.0  0.27646  0.63677  0.36316  1.0000
  H   H6        1.0  0.40376  0.65232  0.41782  1.0000
  C   C4        1.0  0.30840  0.83070  0.38100  1.0000
  C   C5        1.0  0.41600  0.90510  0.38960  1.0000
  H   H7        1.0  0.49111  0.86623  0.41728  1.0000
  C   C6        1.0  0.40990  0.04020  0.35590  1.0000
  H   H8        1.0  0.48207  0.09052  0.36359  1.0000
  C   C7        1.0  0.20350  0.02870  0.30590  1.0000
  H   H9        1.0  0.13040  0.06984  0.27672  1.0000
  C   C8        1.0  0.19920  0.89530  0.33930  1.0000
  H   H10       1.0  0.12360  0.84860  0.33392  1.0000
  P   P3        1.0  0.56950  0.39280  0.34591  1.0000
  P   P4        1.0  0.02750  0.39610  0.35546  1.0000
  O   O7        1.0  0.44830  0.37760  0.43600  1.0000
  O   O8        1.0  0.54260  0.33060  0.24270  1.0000
  O   O9        1.0  0.61870  0.53320  0.31900  1.0000
  O   O10       1.0  0.05240  0.30880  0.25630  1.0000
  O   O11       1.0  0.16390  0.40690  0.39300  1.0000
  O   O12       1.0  0.95680  0.52810  0.32810  1.0000
  N   N3        1.0  0.77040  0.35200  0.47360  1.0000
  N   N4        1.0  0.69250  0.89890  0.68640  1.0000
  C   C9        1.0  0.71580  0.29610  0.38240  1.0000
  H   H11       1.0  0.78711  0.29288  0.31796  1.0000
  H   H12       1.0  0.69022  0.20561  0.40500  1.0000
  C   C10       1.0  0.91660  0.31180  0.46950  1.0000
  H   H13       1.0  0.94319  0.33095  0.53817  1.0000
  H   H14       1.0  0.92926  0.21649  0.46282  1.0000
  C   C11       1.0  0.69010  0.31610  0.58240  1.0000
  H   H15       1.0  0.72354  0.36323  0.63684  1.0000
  H   H16       1.0  0.59624  0.34768  0.58218  1.0000
  C   C12       1.0  0.69160  0.16930  0.61900  1.0000
  C   C13       1.0  0.58400  0.09490  0.61040  1.0000
  H   H17       1.0  0.50889  0.13377  0.58272  1.0000
  C   C14       1.0  0.59010  0.95980  0.64410  1.0000
  H   H18       1.0  0.51793  0.90948  0.63641  1.0000
  C   C15       1.0  0.79650  0.97130  0.69410  1.0000
  H   H19       1.0  0.86960  0.93016  0.72328  1.0000
  C   C16       1.0  0.80080  0.10470  0.66070  1.0000
  H   H20       1.0  0.87640  0.15140  0.66608  1.0000
  N   N5        1.0  0.64490  0.74970  0.94080  1.0000
  N   N6        1.0  0.70140  0.49120  0.87190  1.0000
  N   N7        1.0  0.61900  0.68430  0.11750  1.0000
  H   H21       1.0  0.61363  0.63318  0.17707  1.0000
  N   N8        1.0  0.66570  0.39780  0.04080  1.0000
  H   H22       1.0  0.64713  0.38846  0.11155  1.0000
  C   C17       1.0  0.62020  0.85860  0.00150  1.0000
  H   H23       1.0  0.61424  0.94625  0.97242  1.0000
  C   C18       1.0  0.60560  0.82020  0.11030  1.0000
  H   H24       1.0  0.58956  0.87546  0.16855  1.0000
  C   C19       1.0  0.64230  0.64570  0.01390  1.0000
  C   C20       1.0  0.66740  0.51260  0.97910  1.0000
  C   C21       1.0  0.69830  0.29910  0.97190  1.0000
  H   H25       1.0  0.70559  0.20851  0.99192  1.0000
  C   C22       1.0  0.71840  0.35640  0.86890  1.0000
  H   H26       1.0  0.74061  0.31083  0.80505  1.0000
  C   C23       1.0  0.37980  0.14140  0.99850  1.0000
  H   H27       1.0  0.38576  0.05375  0.02758  1.0000
  C   C24       1.0  0.39440  0.17980  0.88970  1.0000
  H   H28       1.0  0.41044  0.12454  0.83145  1.0000
  C   C25       1.0  0.35770  0.35430  0.98610  1.0000
  C   C26       1.0  0.33260  0.48740  0.02090  1.0000
  C   C27       1.0  0.30170  0.70090  0.02810  1.0000
  H   H29       1.0  0.29441  0.79149  0.00808  1.0000
  C   C28       1.0  0.28160  0.64360  0.13110  1.0000
  H   H30       1.0  0.25939  0.68917  0.19495  1.0000
  N   N9        1.0  0.35510  0.25030  0.05920  1.0000
  N   N10       1.0  0.29860  0.50880  0.12810  1.0000
  N   N11       1.0  0.38100  0.31570  0.88250  1.0000
  H   H31       1.0  0.38637  0.36682  0.82293  1.0000
  N   N12       1.0  0.33430  0.60220  0.95920  1.0000
  H   H32       1.0  0.35287  0.61154  0.88845  1.0000
  Cl  Cl1       1.0  0.78660  0.83460  0.37980  1.0000
  Cl  Cl2       1.0  0.21340  0.16540  0.62020  1.0000
  Cd  Cd1       1.0  0.74778  0.59766  0.44249  1.0000
  Cd  Cd2       1.0  0.68353  0.68219  0.75492  1.0000
  Cd  Cd3       1.0  0.31647  0.31781  0.24508  1.0000
  Cd  Cd4       1.0  0.25222  0.40234  0.55751  1.0000
