data_image0
_chemical_formula_structural       CHCHN2CHCHCHCN2HCHCHF8Nb2Ni2F2O2CHCHN2CHCHCHCN2HCHCHF8Nb2Ni2F2O2CHCHN2CHCHCHCN2HCHCHF8Nb2Ni2F2O2CHCHN2CHCHCHCN2HCHCHF8Nb2Ni2F2O2
_chemical_formula_sum              "C32 H32 N16 F40 Nb8 Ni8 O8"
_cell_length_a       11.1827
_cell_length_b       14.0858
_cell_length_c       15.2186
_cell_angle_alpha    90
_cell_angle_beta     123.361
_cell_angle_gamma    90

_space_group_name_H-M_alt    "P 1"
_space_group_IT_number       1

loop_
  _space_group_symop_operation_xyz
  'x, y, z'

loop_
  _atom_site_type_symbol
  _atom_site_label
  _atom_site_symmetry_multiplicity
  _atom_site_fract_x
  _atom_site_fract_y
  _atom_site_fract_z
  _atom_site_occupancy
  C   C1        1.0  0.93700  0.20350  0.28200  1.0000
  H   H1        1.0  0.87720  0.16595  0.30415  1.0000
  C   C2        1.0  0.06300  0.20350  0.21800  1.0000
  H   H2        1.0  0.12280  0.16595  0.19585  1.0000
  N   N1        1.0  0.00000  0.16000  0.25000  1.0000
  N   N2        1.0  0.00000  0.34000  0.25000  1.0000
  C   C3        1.0  0.06300  0.29650  0.21800  1.0000
  H   H3        1.0  0.12280  0.33405  0.19585  1.0000
  C   C4        1.0  0.93700  0.29650  0.28200  1.0000
  H   H4        1.0  0.87720  0.33405  0.30415  1.0000
  C   C5        1.0  0.43700  0.45350  0.28200  1.0000
  H   H5        1.0  0.37720  0.41595  0.30415  1.0000
  C   C6        1.0  0.56300  0.45350  0.21800  1.0000
  N   N3        1.0  0.50000  0.41000  0.25000  1.0000
  N   N4        1.0  0.50000  0.09000  0.25000  1.0000
  H   H6        1.0  0.62280  0.41595  0.19585  1.0000
  C   C7        1.0  0.56300  0.04650  0.21800  1.0000
  H   H7        1.0  0.62280  0.08405  0.19585  1.0000
  C   C8        1.0  0.43700  0.04650  0.28200  1.0000
  H   H8        1.0  0.37720  0.08405  0.30415  1.0000
  F   F1        1.0  0.12830  0.39835  0.03050  1.0000
  F   F2        1.0  0.87170  0.39835  0.46950  1.0000
  F   F3        1.0  0.87170  0.10165  0.46950  1.0000
  F   F4        1.0  0.12830  0.10165  0.03050  1.0000
  F   F5        1.0  0.62830  0.14835  0.03050  1.0000
  F   F6        1.0  0.37170  0.14835  0.46950  1.0000
  F   F7        1.0  0.37170  0.35165  0.46950  1.0000
  F   F8        1.0  0.62830  0.35165  0.03050  1.0000
  Nb  Nb1       1.0  0.00000  0.00000  0.00000  1.0000
  Nb  Nb2       1.0  0.50000  0.25000  0.00000  1.0000
  Ni  Ni1       1.0  0.00000  0.00000  0.25000  1.0000
  Ni  Ni2       1.0  0.50000  0.25000  0.25000  1.0000
  F   F9        1.0  0.05930  0.00000  0.15050  1.0000
  F   F10       1.0  0.55930  0.25000  0.15050  1.0000
  O   O1        1.0  0.94070  0.00000  0.34950  1.0000
  O   O2        1.0  0.44070  0.25000  0.34950  1.0000
  C   C9        1.0  0.93700  0.20350  0.78200  1.0000
  H   H9        1.0  0.87720  0.16595  0.80415  1.0000
  C   C10       1.0  0.06300  0.20350  0.71800  1.0000
  H   H10       1.0  0.12280  0.16595  0.69585  1.0000
  N   N5        1.0  0.00000  0.16000  0.75000  1.0000
  N   N6        1.0  0.00000  0.34000  0.75000  1.0000
  C   C11       1.0  0.06300  0.29650  0.71800  1.0000
  H   H11       1.0  0.12280  0.33405  0.69585  1.0000
  C   C12       1.0  0.93700  0.29650  0.78200  1.0000
  H   H12       1.0  0.87720  0.33405  0.80415  1.0000
  C   C13       1.0  0.43700  0.45350  0.78200  1.0000
  H   H13       1.0  0.37720  0.41595  0.80415  1.0000
  C   C14       1.0  0.56300  0.45350  0.71800  1.0000
  N   N7        1.0  0.50000  0.41000  0.75000  1.0000
  N   N8        1.0  0.50000  0.09000  0.75000  1.0000
  H   H14       1.0  0.62280  0.41595  0.69585  1.0000
  C   C15       1.0  0.56300  0.04650  0.71800  1.0000
  H   H15       1.0  0.62280  0.08405  0.69585  1.0000
  C   C16       1.0  0.43700  0.04650  0.78200  1.0000
  H   H16       1.0  0.37720  0.08405  0.80415  1.0000
  F   F11       1.0  0.12830  0.39835  0.53050  1.0000
  F   F12       1.0  0.87170  0.39835  0.96950  1.0000
  F   F13       1.0  0.87170  0.10165  0.96950  1.0000
  F   F14       1.0  0.12830  0.10165  0.53050  1.0000
  F   F15       1.0  0.62830  0.14835  0.53050  1.0000
  F   F16       1.0  0.37170  0.14835  0.96950  1.0000
  F   F17       1.0  0.37170  0.35165  0.96950  1.0000
  F   F18       1.0  0.62830  0.35165  0.53050  1.0000
  Nb  Nb3       1.0  0.00000  0.00000  0.50000  1.0000
  Nb  Nb4       1.0  0.50000  0.25000  0.50000  1.0000
  Ni  Ni3       1.0  0.00000  0.00000  0.75000  1.0000
  Ni  Ni4       1.0  0.50000  0.25000  0.75000  1.0000
  F   F19       1.0  0.05930  0.00000  0.65050  1.0000
  F   F20       1.0  0.55930  0.25000  0.65050  1.0000
  O   O3        1.0  0.94070  0.00000  0.84950  1.0000
  O   O4        1.0  0.44070  0.25000  0.84950  1.0000
  C   C17       1.0  0.93700  0.70350  0.28200  1.0000
  H   H17       1.0  0.87720  0.66595  0.30415  1.0000
  C   C18       1.0  0.06300  0.70350  0.21800  1.0000
  H   H18       1.0  0.12280  0.66595  0.19585  1.0000
  N   N9        1.0  0.00000  0.66000  0.25000  1.0000
  N   N10       1.0  0.00000  0.84000  0.25000  1.0000
  C   C19       1.0  0.06300  0.79650  0.21800  1.0000
  H   H19       1.0  0.12280  0.83405  0.19585  1.0000
  C   C20       1.0  0.93700  0.79650  0.28200  1.0000
  H   H20       1.0  0.87720  0.83405  0.30415  1.0000
  C   C21       1.0  0.43700  0.95350  0.28200  1.0000
  H   H21       1.0  0.37720  0.91595  0.30415  1.0000
  C   C22       1.0  0.56300  0.95350  0.21800  1.0000
  N   N11       1.0  0.50000  0.91000  0.25000  1.0000
  N   N12       1.0  0.50000  0.59000  0.25000  1.0000
  H   H22       1.0  0.62280  0.91595  0.19585  1.0000
  C   C23       1.0  0.56300  0.54650  0.21800  1.0000
  H   H23       1.0  0.62280  0.58405  0.19585  1.0000
  C   C24       1.0  0.43700  0.54650  0.28200  1.0000
  H   H24       1.0  0.37720  0.58405  0.30415  1.0000
  F   F21       1.0  0.12830  0.89835  0.03050  1.0000
  F   F22       1.0  0.87170  0.89835  0.46950  1.0000
  F   F23       1.0  0.87170  0.60165  0.46950  1.0000
  F   F24       1.0  0.12830  0.60165  0.03050  1.0000
  F   F25       1.0  0.62830  0.64835  0.03050  1.0000
  F   F26       1.0  0.37170  0.64835  0.46950  1.0000
  F   F27       1.0  0.37170  0.85165  0.46950  1.0000
  F   F28       1.0  0.62830  0.85165  0.03050  1.0000
  Nb  Nb5       1.0  0.00000  0.50000  0.00000  1.0000
  Nb  Nb6       1.0  0.50000  0.75000  0.00000  1.0000
  Ni  Ni5       1.0  0.00000  0.50000  0.25000  1.0000
  Ni  Ni6       1.0  0.50000  0.75000  0.25000  1.0000
  F   F29       1.0  0.05930  0.50000  0.15050  1.0000
  F   F30       1.0  0.55930  0.75000  0.15050  1.0000
  O   O5        1.0  0.94070  0.50000  0.34950  1.0000
  O   O6        1.0  0.44070  0.75000  0.34950  1.0000
  C   C25       1.0  0.93700  0.70350  0.78200  1.0000
  H   H25       1.0  0.87720  0.66595  0.80415  1.0000
  C   C26       1.0  0.06300  0.70350  0.71800  1.0000
  H   H26       1.0  0.12280  0.66595  0.69585  1.0000
  N   N13       1.0  0.00000  0.66000  0.75000  1.0000
  N   N14       1.0  0.00000  0.84000  0.75000  1.0000
  C   C27       1.0  0.06300  0.79650  0.71800  1.0000
  H   H27       1.0  0.12280  0.83405  0.69585  1.0000
  C   C28       1.0  0.93700  0.79650  0.78200  1.0000
  H   H28       1.0  0.87720  0.83405  0.80415  1.0000
  C   C29       1.0  0.43700  0.95350  0.78200  1.0000
  H   H29       1.0  0.37720  0.91595  0.80415  1.0000
  C   C30       1.0  0.56300  0.95350  0.71800  1.0000
  N   N15       1.0  0.50000  0.91000  0.75000  1.0000
  N   N16       1.0  0.50000  0.59000  0.75000  1.0000
  H   H30       1.0  0.62280  0.91595  0.69585  1.0000
  C   C31       1.0  0.56300  0.54650  0.71800  1.0000
  H   H31       1.0  0.62280  0.58405  0.69585  1.0000
  C   C32       1.0  0.43700  0.54650  0.78200  1.0000
  H   H32       1.0  0.37720  0.58405  0.80415  1.0000
  F   F31       1.0  0.12830  0.89835  0.53050  1.0000
  F   F32       1.0  0.87170  0.89835  0.96950  1.0000
  F   F33       1.0  0.87170  0.60165  0.96950  1.0000
  F   F34       1.0  0.12830  0.60165  0.53050  1.0000
  F   F35       1.0  0.62830  0.64835  0.53050  1.0000
  F   F36       1.0  0.37170  0.64835  0.96950  1.0000
  F   F37       1.0  0.37170  0.85165  0.96950  1.0000
  F   F38       1.0  0.62830  0.85165  0.53050  1.0000
  Nb  Nb7       1.0  0.00000  0.50000  0.50000  1.0000
  Nb  Nb8       1.0  0.50000  0.75000  0.50000  1.0000
  Ni  Ni7       1.0  0.00000  0.50000  0.75000  1.0000
  Ni  Ni8       1.0  0.50000  0.75000  0.75000  1.0000
  F   F39       1.0  0.05930  0.50000  0.65050  1.0000
  F   F40       1.0  0.55930  0.75000  0.65050  1.0000
  O   O7        1.0  0.94070  0.50000  0.84950  1.0000
  O   O8        1.0  0.44070  0.75000  0.84950  1.0000
