data_image0
_chemical_formula_structural       C3HC3HCO2CSC2O3CSHO5CHO2SO3C3HC3HO2SO3C3HC3HC3HC3HCO2C2SC2O2SO4HO2CHC3HC3HO2SO3C3HC3HO2SO3C3HC3HCO2C2SC2O2SOHO5CHC3HC3HO2SO3C3HC3HO2SO4C3HC3HCO2CSC2O3CSHO3COHC3HC3HO2SO3C3HC3HO2SO4Zr2OZr4O13ZrOZr5
_chemical_formula_sum              "C96 H32 O96 S16 Zr12"
_cell_length_a       17.7506
_cell_length_b       17.7506
_cell_length_c       22.4863
_cell_angle_alpha    90
_cell_angle_beta     90
_cell_angle_gamma    90

_space_group_name_H-M_alt    "P 1"
_space_group_IT_number       1

loop_
  _space_group_symop_operation_xyz
  'x, y, z'

loop_
  _atom_site_type_symbol
  _atom_site_label
  _atom_site_symmetry_multiplicity
  _atom_site_fract_x
  _atom_site_fract_y
  _atom_site_fract_z
  _atom_site_occupancy
  C   C1        1.0  0.62380  0.62240  0.64370  1.0000
  C   C2        1.0  0.66510  0.66340  0.69050  1.0000
  C   C3        1.0  0.71690  0.71650  0.67630  1.0000
  H   H1        1.0  0.72580  0.72670  0.63550  1.0000
  C   C4        1.0  0.74170  0.74280  0.78110  1.0000
  C   C5        1.0  0.68900  0.68740  0.79720  1.0000
  C   C6        1.0  0.65070  0.64940  0.74930  1.0000
  H   H2        1.0  0.61360  0.61280  0.75900  1.0000
  C   C7        1.0  0.83490  0.83660  0.80950  1.0000
  O   O1        1.0  0.63920  0.63800  0.59070  1.0000
  O   O2        1.0  0.57480  0.57430  0.66110  1.0000
  C   C8        1.0  0.75830  0.75720  0.71890  1.0000
  S   S1        1.0  0.66700  0.66660  0.87320  1.0000
  C   C9        1.0  0.81100  0.81260  0.70280  1.0000
  C   C10       1.0  0.78310  0.78350  0.82370  1.0000
  O   O3        1.0  0.60720  0.60880  0.86760  1.0000
  O   O4        1.0  0.72800  0.64580  0.89970  1.0000
  O   O5        1.0  0.64470  0.73340  0.89790  1.0000
  C   C11       1.0  0.84930  0.85060  0.75070  1.0000
  S   S2        1.0  0.83300  0.83340  0.62680  1.0000
  H   H3        1.0  0.88640  0.88720  0.74100  1.0000
  O   O6        1.0  0.89280  0.89120  0.63240  1.0000
  O   O7        1.0  0.77200  0.85420  0.60030  1.0000
  O   O8        1.0  0.85530  0.76660  0.60210  1.0000
  O   O9        1.0  0.92520  0.92570  0.83890  1.0000
  O   O10       1.0  0.86080  0.86200  0.90930  1.0000
  C   C12       1.0  0.87620  0.87760  0.85630  1.0000
  H   H4        1.0  0.77420  0.77330  0.86450  1.0000
  O   O11       1.0  0.36080  0.36200  0.40930  1.0000
  O   O12       1.0  0.42520  0.42570  0.33890  1.0000
  S   S3        1.0  0.33300  0.33340  0.12680  1.0000
  O   O13       1.0  0.35530  0.26660  0.10210  1.0000
  O   O14       1.0  0.39280  0.39120  0.13240  1.0000
  O   O15       1.0  0.27200  0.35420  0.10030  1.0000
  C   C13       1.0  0.12380  0.12240  0.14370  1.0000
  C   C14       1.0  0.16510  0.16340  0.19050  1.0000
  C   C15       1.0  0.21690  0.21650  0.17630  1.0000
  H   H5        1.0  0.22580  0.22670  0.13550  1.0000
  C   C16       1.0  0.24170  0.24280  0.28110  1.0000
  C   C17       1.0  0.18900  0.18740  0.29720  1.0000
  C   C18       1.0  0.15070  0.14940  0.24930  1.0000
  H   H6        1.0  0.11360  0.11280  0.25900  1.0000
  O   O16       1.0  0.13920  0.13800  0.09070  1.0000
  O   O17       1.0  0.07480  0.07430  0.16110  1.0000
  S   S4        1.0  0.16700  0.16660  0.37320  1.0000
  O   O18       1.0  0.14470  0.23340  0.39790  1.0000
  O   O19       1.0  0.10720  0.10880  0.36760  1.0000
  O   O20       1.0  0.22800  0.14580  0.39970  1.0000
  C   C19       1.0  0.37620  0.37760  0.35630  1.0000
  C   C20       1.0  0.33490  0.33660  0.30950  1.0000
  C   C21       1.0  0.28310  0.28350  0.32370  1.0000
  H   H7        1.0  0.27420  0.27330  0.36450  1.0000
  C   C22       1.0  0.25830  0.25720  0.21890  1.0000
  C   C23       1.0  0.31100  0.31260  0.20280  1.0000
  C   C24       1.0  0.34930  0.35060  0.25070  1.0000
  H   H8        1.0  0.38640  0.38720  0.24100  1.0000
  C   C25       1.0  0.37620  0.37760  0.64370  1.0000
  C   C26       1.0  0.33490  0.33660  0.69050  1.0000
  C   C27       1.0  0.28310  0.28350  0.67630  1.0000
  H   H9        1.0  0.27420  0.27330  0.63550  1.0000
  C   C28       1.0  0.25830  0.25720  0.78110  1.0000
  C   C29       1.0  0.31100  0.31260  0.79720  1.0000
  C   C30       1.0  0.34930  0.35060  0.74930  1.0000
  H   H10       1.0  0.38640  0.38720  0.75900  1.0000
  C   C31       1.0  0.16510  0.16340  0.80950  1.0000
  O   O21       1.0  0.36080  0.36200  0.59070  1.0000
  O   O22       1.0  0.42520  0.42570  0.66110  1.0000
  C   C32       1.0  0.24170  0.24280  0.71890  1.0000
  C   C33       1.0  0.18900  0.18740  0.70280  1.0000
  S   S5        1.0  0.33300  0.33340  0.87320  1.0000
  C   C34       1.0  0.21690  0.21650  0.82370  1.0000
  C   C35       1.0  0.15070  0.14940  0.75070  1.0000
  O   O23       1.0  0.39280  0.39120  0.86760  1.0000
  O   O24       1.0  0.27200  0.35420  0.89970  1.0000
  S   S6        1.0  0.16700  0.16660  0.62680  1.0000
  O   O25       1.0  0.35530  0.26660  0.89790  1.0000
  O   O26       1.0  0.10720  0.10880  0.63240  1.0000
  O   O27       1.0  0.22800  0.14580  0.60030  1.0000
  O   O28       1.0  0.14470  0.23340  0.60210  1.0000
  H   H11       1.0  0.11360  0.11280  0.74100  1.0000
  O   O29       1.0  0.07480  0.07430  0.83890  1.0000
  O   O30       1.0  0.13920  0.13800  0.90930  1.0000
  C   C36       1.0  0.12380  0.12240  0.85630  1.0000
  H   H12       1.0  0.22580  0.22670  0.86450  1.0000
  C   C37       1.0  0.62380  0.62240  0.35630  1.0000
  C   C38       1.0  0.66510  0.66340  0.30950  1.0000
  C   C39       1.0  0.71690  0.71650  0.32370  1.0000
  H   H13       1.0  0.72580  0.72670  0.36450  1.0000
  C   C40       1.0  0.74170  0.74280  0.21890  1.0000
  C   C41       1.0  0.68900  0.68740  0.20280  1.0000
  C   C42       1.0  0.65070  0.64940  0.25070  1.0000
  H   H14       1.0  0.61360  0.61280  0.24100  1.0000
  O   O31       1.0  0.63920  0.63800  0.40930  1.0000
  O   O32       1.0  0.57480  0.57430  0.33890  1.0000
  S   S7        1.0  0.66700  0.66660  0.12680  1.0000
  O   O33       1.0  0.64470  0.73340  0.10210  1.0000
  O   O34       1.0  0.60720  0.60880  0.13240  1.0000
  O   O35       1.0  0.72800  0.64580  0.10030  1.0000
  C   C43       1.0  0.87620  0.87760  0.14370  1.0000
  C   C44       1.0  0.83490  0.83660  0.19050  1.0000
  C   C45       1.0  0.78310  0.78350  0.17630  1.0000
  H   H15       1.0  0.77420  0.77330  0.13550  1.0000
  C   C46       1.0  0.75830  0.75720  0.28110  1.0000
  C   C47       1.0  0.81100  0.81260  0.29720  1.0000
  C   C48       1.0  0.84930  0.85060  0.24930  1.0000
  H   H16       1.0  0.88640  0.88720  0.25900  1.0000
  O   O36       1.0  0.86080  0.86200  0.09070  1.0000
  O   O37       1.0  0.92520  0.92570  0.16110  1.0000
  S   S8        1.0  0.83300  0.83340  0.37320  1.0000
  O   O38       1.0  0.85530  0.76660  0.39790  1.0000
  O   O39       1.0  0.89280  0.89120  0.36760  1.0000
  O   O40       1.0  0.77200  0.85420  0.39970  1.0000
  C   C49       1.0  0.37760  0.62380  0.64370  1.0000
  C   C50       1.0  0.33660  0.66510  0.69050  1.0000
  C   C51       1.0  0.28350  0.71690  0.67630  1.0000
  H   H17       1.0  0.27330  0.72580  0.63550  1.0000
  C   C52       1.0  0.25720  0.74170  0.78110  1.0000
  C   C53       1.0  0.31260  0.68900  0.79720  1.0000
  C   C54       1.0  0.35060  0.65070  0.74930  1.0000
  H   H18       1.0  0.38720  0.61360  0.75900  1.0000
  C   C55       1.0  0.16340  0.83490  0.80950  1.0000
  O   O41       1.0  0.36200  0.63920  0.59070  1.0000
  O   O42       1.0  0.42570  0.57480  0.66110  1.0000
  C   C56       1.0  0.24280  0.75830  0.71890  1.0000
  C   C57       1.0  0.18740  0.81100  0.70280  1.0000
  S   S9        1.0  0.33340  0.66700  0.87320  1.0000
  C   C58       1.0  0.21650  0.78310  0.82370  1.0000
  C   C59       1.0  0.14940  0.84930  0.75070  1.0000
  O   O43       1.0  0.39120  0.60720  0.86760  1.0000
  O   O44       1.0  0.35420  0.72800  0.89970  1.0000
  S   S10       1.0  0.16660  0.83300  0.62680  1.0000
  O   O45       1.0  0.26660  0.64470  0.89790  1.0000
  H   H19       1.0  0.11280  0.88640  0.74100  1.0000
  O   O46       1.0  0.10880  0.89280  0.63240  1.0000
  O   O47       1.0  0.23340  0.85530  0.60210  1.0000
  O   O48       1.0  0.14580  0.77200  0.60030  1.0000
  O   O49       1.0  0.07430  0.92520  0.83890  1.0000
  O   O50       1.0  0.13800  0.86080  0.90930  1.0000
  C   C60       1.0  0.12240  0.87620  0.85630  1.0000
  H   H20       1.0  0.22670  0.77420  0.86450  1.0000
  C   C61       1.0  0.62240  0.37620  0.35630  1.0000
  C   C62       1.0  0.66340  0.33490  0.30950  1.0000
  C   C63       1.0  0.71650  0.28310  0.32370  1.0000
  H   H21       1.0  0.72670  0.27420  0.36450  1.0000
  C   C64       1.0  0.74280  0.25830  0.21890  1.0000
  C   C65       1.0  0.68740  0.31100  0.20280  1.0000
  C   C66       1.0  0.64940  0.34930  0.25070  1.0000
  H   H22       1.0  0.61280  0.38640  0.24100  1.0000
  O   O51       1.0  0.63800  0.36080  0.40930  1.0000
  O   O52       1.0  0.57430  0.42520  0.33890  1.0000
  S   S11       1.0  0.66660  0.33300  0.12680  1.0000
  O   O53       1.0  0.73340  0.35530  0.10210  1.0000
  O   O54       1.0  0.60880  0.39280  0.13240  1.0000
  O   O55       1.0  0.64580  0.27200  0.10030  1.0000
  C   C67       1.0  0.87760  0.12380  0.14370  1.0000
  C   C68       1.0  0.83660  0.16510  0.19050  1.0000
  C   C69       1.0  0.78350  0.21690  0.17630  1.0000
  H   H23       1.0  0.77330  0.22580  0.13550  1.0000
  C   C70       1.0  0.75720  0.24170  0.28110  1.0000
  C   C71       1.0  0.81260  0.18900  0.29720  1.0000
  C   C72       1.0  0.85060  0.15070  0.24930  1.0000
  H   H24       1.0  0.88720  0.11360  0.25900  1.0000
  O   O56       1.0  0.86200  0.13920  0.09070  1.0000
  O   O57       1.0  0.92570  0.07480  0.16110  1.0000
  S   S12       1.0  0.83340  0.16700  0.37320  1.0000
  O   O58       1.0  0.76660  0.14470  0.39790  1.0000
  O   O59       1.0  0.89120  0.10720  0.36760  1.0000
  O   O60       1.0  0.85420  0.22800  0.39970  1.0000
  O   O61       1.0  0.86200  0.13920  0.90930  1.0000
  C   C73       1.0  0.62240  0.37620  0.64370  1.0000
  C   C74       1.0  0.66340  0.33490  0.69050  1.0000
  C   C75       1.0  0.71650  0.28310  0.67630  1.0000
  H   H25       1.0  0.72670  0.27420  0.63550  1.0000
  C   C76       1.0  0.74280  0.25830  0.78110  1.0000
  C   C77       1.0  0.68740  0.31100  0.79720  1.0000
  C   C78       1.0  0.64940  0.34930  0.74930  1.0000
  H   H26       1.0  0.61280  0.38640  0.75900  1.0000
  C   C79       1.0  0.83660  0.16510  0.80950  1.0000
  O   O62       1.0  0.63800  0.36080  0.59070  1.0000
  O   O63       1.0  0.57430  0.42520  0.66110  1.0000
  C   C80       1.0  0.75720  0.24170  0.71890  1.0000
  S   S13       1.0  0.66660  0.33300  0.87320  1.0000
  C   C81       1.0  0.81260  0.18900  0.70280  1.0000
  C   C82       1.0  0.78350  0.21690  0.82370  1.0000
  O   O64       1.0  0.73340  0.35530  0.89790  1.0000
  O   O65       1.0  0.60880  0.39280  0.86760  1.0000
  O   O66       1.0  0.64580  0.27200  0.89970  1.0000
  C   C83       1.0  0.85060  0.15070  0.75070  1.0000
  S   S14       1.0  0.83340  0.16700  0.62680  1.0000
  H   H27       1.0  0.88720  0.11360  0.74100  1.0000
  O   O67       1.0  0.76660  0.14470  0.60210  1.0000
  O   O68       1.0  0.89120  0.10720  0.63240  1.0000
  O   O69       1.0  0.85420  0.22800  0.60030  1.0000
  C   C84       1.0  0.87760  0.12380  0.85630  1.0000
  O   O70       1.0  0.92570  0.07480  0.83890  1.0000
  H   H28       1.0  0.77330  0.22580  0.86450  1.0000
  C   C85       1.0  0.37760  0.62380  0.35630  1.0000
  C   C86       1.0  0.33660  0.66510  0.30950  1.0000
  C   C87       1.0  0.28350  0.71690  0.32370  1.0000
  H   H29       1.0  0.27330  0.72580  0.36450  1.0000
  C   C88       1.0  0.25720  0.74170  0.21890  1.0000
  C   C89       1.0  0.31260  0.68900  0.20280  1.0000
  C   C90       1.0  0.35060  0.65070  0.25070  1.0000
  H   H30       1.0  0.38720  0.61360  0.24100  1.0000
  O   O71       1.0  0.36200  0.63920  0.40930  1.0000
  O   O72       1.0  0.42570  0.57480  0.33890  1.0000
  S   S15       1.0  0.33340  0.66700  0.12680  1.0000
  O   O73       1.0  0.26660  0.64470  0.10210  1.0000
  O   O74       1.0  0.39120  0.60720  0.13240  1.0000
  O   O75       1.0  0.35420  0.72800  0.10030  1.0000
  C   C91       1.0  0.12240  0.87620  0.14370  1.0000
  C   C92       1.0  0.16340  0.83490  0.19050  1.0000
  C   C93       1.0  0.21650  0.78310  0.17630  1.0000
  H   H31       1.0  0.22670  0.77420  0.13550  1.0000
  C   C94       1.0  0.24280  0.75830  0.28110  1.0000
  C   C95       1.0  0.18740  0.81100  0.29720  1.0000
  C   C96       1.0  0.14940  0.84930  0.24930  1.0000
  H   H32       1.0  0.11280  0.88640  0.25900  1.0000
  O   O76       1.0  0.13800  0.86080  0.09070  1.0000
  O   O77       1.0  0.07430  0.92520  0.16110  1.0000
  S   S16       1.0  0.16660  0.83300  0.37320  1.0000
  O   O78       1.0  0.23340  0.85530  0.39790  1.0000
  O   O79       1.0  0.10880  0.89280  0.36760  1.0000
  O   O80       1.0  0.14580  0.77200  0.39970  1.0000
  O   O81       1.0  0.61170  0.49980  0.44020  1.0000
  Zr  Zr1       1.0  0.40034  0.59982  0.50000  1.0000
  Zr  Zr2       1.0  0.90034  0.09982  0.00000  1.0000
  O   O82       1.0  0.38830  0.50020  0.55980  1.0000
  Zr  Zr3       1.0  0.50000  0.50000  0.60899  1.0000
  Zr  Zr4       1.0  0.00000  0.00000  0.10899  1.0000
  Zr  Zr5       1.0  0.50000  0.50000  0.39101  1.0000
  Zr  Zr6       1.0  0.00000  0.00000  0.89101  1.0000
  O   O83       1.0  0.11170  0.99980  0.94020  1.0000
  O   O84       1.0  0.88830  0.00020  0.05980  1.0000
  O   O85       1.0  0.38830  0.50020  0.44020  1.0000
  O   O86       1.0  0.61170  0.49980  0.55980  1.0000
  O   O87       1.0  0.88830  0.00020  0.94020  1.0000
  O   O88       1.0  0.11170  0.99980  0.05980  1.0000
  O   O89       1.0  0.50020  0.61170  0.44020  1.0000
  O   O90       1.0  0.49980  0.38830  0.55980  1.0000
  O   O91       1.0  0.00020  0.11170  0.94020  1.0000
  O   O92       1.0  0.99980  0.88830  0.05980  1.0000
  O   O93       1.0  0.49980  0.38830  0.44020  1.0000
  O   O94       1.0  0.50020  0.61170  0.55980  1.0000
  O   O95       1.0  0.99980  0.88830  0.94020  1.0000
  Zr  Zr7       1.0  0.40018  0.40034  0.50000  1.0000
  O   O96       1.0  0.00020  0.11170  0.05980  1.0000
  Zr  Zr8       1.0  0.90018  0.90034  0.00000  1.0000
  Zr  Zr9       1.0  0.59982  0.59966  0.50000  1.0000
  Zr  Zr10      1.0  0.09982  0.09966  0.00000  1.0000
  Zr  Zr11      1.0  0.59966  0.40018  0.50000  1.0000
  Zr  Zr12      1.0  0.09966  0.90018  0.00000  1.0000
