data_image0
_chemical_formula_structural       C7HCHC2HCHCHCHCHN2HN2HOHO3C7HCHC2HCHCHCHCHN2HN2HOHO3C7HCHC2HCHCHCHCHN2HN2HOHO3C7HCHC2HCHCHCHCHN2HN2HOHO3C7HCHC2HCHCHCHCHN2HN2HOHO3C7HCHC2HCHCHCHCHN2HN2HOHO3C7HCHC2HCHCHCHCHN2HN2HOHO3C7HCHC2HCHCHCHCHN2HN2HOHO3
_chemical_formula_sum              "C112 H80 N32 O32"
_cell_length_a       14.1286
_cell_length_b       14.4659
_cell_length_c       14.151
_cell_angle_alpha    90
_cell_angle_beta     99.924
_cell_angle_gamma    90

_space_group_name_H-M_alt    "P 1"
_space_group_IT_number       1

loop_
  _space_group_symop_operation_xyz
  'x, y, z'

loop_
  _atom_site_type_symbol
  _atom_site_label
  _atom_site_symmetry_multiplicity
  _atom_site_fract_x
  _atom_site_fract_y
  _atom_site_fract_z
  _atom_site_occupancy
  C   C1        1.0  0.40700  0.75264  0.45737  1.0000
  C   C2        1.0  0.39684  0.66317  0.50545  1.0000
  C   C3        1.0  0.40424  0.63582  0.60005  1.0000
  C   C4        1.0  0.41842  0.69319  0.68827  1.0000
  C   C5        1.0  0.38029  0.51235  0.51446  1.0000
  C   C6        1.0  0.36436  0.41634  0.48247  1.0000
  C   C7        1.0  0.36449  0.39296  0.38675  1.0000
  H   H1        1.0  0.37572  0.43853  0.34366  1.0000
  C   C8        1.0  0.34810  0.30272  0.35509  1.0000
  H   H2        1.0  0.34864  0.28762  0.29131  1.0000
  C   C9        1.0  0.33092  0.23535  0.41958  1.0000
  C   C10       1.0  0.33208  0.25621  0.51565  1.0000
  H   H3        1.0  0.32195  0.21017  0.55869  1.0000
  C   C11       1.0  0.34861  0.34697  0.54642  1.0000
  H   H4        1.0  0.34917  0.36162  0.61050  1.0000
  C   C12       1.0  0.25475  0.12465  0.29902  1.0000
  H   H5        1.0  0.22900  0.16796  0.25314  1.0000
  C   C13       1.0  0.29460  0.99296  0.37189  1.0000
  H   H6        1.0  0.29987  0.92978  0.38383  1.0000
  C   C14       1.0  0.33485  0.06105  0.43096  1.0000
  H   H7        1.0  0.37278  0.05376  0.49108  1.0000
  N   N1        1.0  0.39534  0.54145  0.60510  1.0000
  N   N2        1.0  0.38133  0.58393  0.45263  1.0000
  H   H8        1.0  0.37359  0.58006  0.39114  1.0000
  N   N3        1.0  0.30862  0.14358  0.38453  1.0000
  N   N4        1.0  0.24444  0.03415  0.29105  1.0000
  H   H9        1.0  0.21164  0.00558  0.24298  1.0000
  O   O1        1.0  0.41695  0.82639  0.50991  1.0000
  H   H10       1.0  0.41948  0.81205  0.56636  1.0000
  O   O2        1.0  0.40690  0.75560  0.37134  1.0000
  O   O3        1.0  0.42011  0.65549  0.76690  1.0000
  O   O4        1.0  0.42709  0.78061  0.67742  1.0000
  C   C15       1.0  0.34300  0.25264  0.04263  1.0000
  C   C16       1.0  0.35316  0.16317  0.99455  1.0000
  C   C17       1.0  0.34576  0.13582  0.89995  1.0000
  C   C18       1.0  0.33158  0.19319  0.81173  1.0000
  C   C19       1.0  0.36970  0.01235  0.98554  1.0000
  C   C20       1.0  0.38564  0.91634  0.01753  1.0000
  C   C21       1.0  0.38551  0.89296  0.11325  1.0000
  H   H11       1.0  0.37428  0.93853  0.15635  1.0000
  C   C22       1.0  0.40190  0.80272  0.14491  1.0000
  H   H12       1.0  0.40136  0.78762  0.20869  1.0000
  C   C23       1.0  0.41908  0.73535  0.08042  1.0000
  C   C24       1.0  0.41792  0.75621  0.98435  1.0000
  H   H13       1.0  0.42805  0.71017  0.94131  1.0000
  C   C25       1.0  0.40139  0.84697  0.95358  1.0000
  H   H14       1.0  0.40083  0.86162  0.88950  1.0000
  C   C26       1.0  0.49525  0.62465  0.20098  1.0000
  H   H15       1.0  0.02100  0.66796  0.24686  1.0000
  C   C27       1.0  0.45540  0.49296  0.12811  1.0000
  H   H16       1.0  0.45013  0.42978  0.11617  1.0000
  C   C28       1.0  0.41515  0.56105  0.06904  1.0000
  H   H17       1.0  0.37722  0.55376  0.00892  1.0000
  N   N5        1.0  0.35466  0.04145  0.89490  1.0000
  N   N6        1.0  0.36867  0.08393  0.04737  1.0000
  H   H18       1.0  0.37641  0.08006  0.10886  1.0000
  N   N7        1.0  0.44137  0.64358  0.11547  1.0000
  N   N8        1.0  0.00555  0.53415  0.20895  1.0000
  H   H19       1.0  0.03836  0.50558  0.25702  1.0000
  O   O5        1.0  0.33305  0.32639  0.99009  1.0000
  H   H20       1.0  0.33052  0.31205  0.93364  1.0000
  O   O6        1.0  0.34310  0.25560  0.12866  1.0000
  O   O7        1.0  0.32989  0.15549  0.73310  1.0000
  O   O8        1.0  0.32291  0.28061  0.82258  1.0000
  C   C29       1.0  0.09300  0.24736  0.54263  1.0000
  C   C30       1.0  0.10316  0.33683  0.49455  1.0000
  C   C31       1.0  0.09576  0.36418  0.39995  1.0000
  C   C32       1.0  0.08158  0.30681  0.31173  1.0000
  C   C33       1.0  0.11971  0.48765  0.48554  1.0000
  C   C34       1.0  0.13564  0.58366  0.51753  1.0000
  C   C35       1.0  0.13551  0.60704  0.61325  1.0000
  H   H21       1.0  0.12428  0.56147  0.65635  1.0000
  C   C36       1.0  0.15190  0.69728  0.64491  1.0000
  H   H22       1.0  0.15136  0.71238  0.70869  1.0000
  C   C37       1.0  0.16908  0.76465  0.58042  1.0000
  C   C38       1.0  0.16792  0.74379  0.48435  1.0000
  H   H23       1.0  0.17805  0.78983  0.44131  1.0000
  C   C39       1.0  0.15139  0.65303  0.45358  1.0000
  H   H24       1.0  0.15083  0.63838  0.38950  1.0000
  C   C40       1.0  0.24525  0.87535  0.70098  1.0000
  H   H25       1.0  0.27100  0.83204  0.74686  1.0000
  C   C41       1.0  0.20540  0.00704  0.62811  1.0000
  H   H26       1.0  0.20013  0.07022  0.61617  1.0000
  C   C42       1.0  0.16515  0.93895  0.56904  1.0000
  H   H27       1.0  0.12723  0.94624  0.50892  1.0000
  N   N9        1.0  0.10466  0.45855  0.39490  1.0000
  N   N10       1.0  0.11867  0.41607  0.54737  1.0000
  H   H28       1.0  0.12641  0.41994  0.60886  1.0000
  N   N11       1.0  0.19137  0.85642  0.61547  1.0000
  N   N12       1.0  0.25555  0.96585  0.70895  1.0000
  H   H29       1.0  0.28836  0.99442  0.75702  1.0000
  O   O9        1.0  0.08305  0.17361  0.49009  1.0000
  H   H30       1.0  0.08052  0.18795  0.43364  1.0000
  O   O10       1.0  0.09310  0.24440  0.62866  1.0000
  O   O11       1.0  0.07989  0.34451  0.23310  1.0000
  O   O12       1.0  0.07291  0.21939  0.32258  1.0000
  C   C43       1.0  0.15700  0.74736  0.95737  1.0000
  C   C44       1.0  0.14684  0.83683  0.00545  1.0000
  C   C45       1.0  0.15424  0.86418  0.10005  1.0000
  C   C46       1.0  0.16842  0.80681  0.18827  1.0000
  C   C47       1.0  0.13029  0.98765  0.01446  1.0000
  C   C48       1.0  0.11436  0.08366  0.98247  1.0000
  C   C49       1.0  0.11449  0.10704  0.88675  1.0000
  H   H31       1.0  0.12571  0.06147  0.84366  1.0000
  C   C50       1.0  0.09810  0.19728  0.85509  1.0000
  H   H32       1.0  0.09864  0.21238  0.79131  1.0000
  C   C51       1.0  0.08092  0.26465  0.91958  1.0000
  C   C52       1.0  0.08207  0.24379  0.01565  1.0000
  H   H33       1.0  0.07195  0.28983  0.05869  1.0000
  C   C53       1.0  0.09861  0.15303  0.04642  1.0000
  H   H34       1.0  0.09917  0.13838  0.11050  1.0000
  C   C54       1.0  0.00475  0.37535  0.79902  1.0000
  H   H35       1.0  0.47899  0.33204  0.75314  1.0000
  C   C55       1.0  0.04460  0.50704  0.87189  1.0000
  H   H36       1.0  0.04987  0.57022  0.88383  1.0000
  C   C56       1.0  0.08485  0.43895  0.93096  1.0000
  H   H37       1.0  0.12277  0.44624  0.99108  1.0000
  N   N13       1.0  0.14534  0.95855  0.10510  1.0000
  N   N14       1.0  0.13132  0.91607  0.95263  1.0000
  H   H38       1.0  0.12358  0.91994  0.89114  1.0000
  N   N15       1.0  0.05862  0.35642  0.88453  1.0000
  N   N16       1.0  0.49445  0.46585  0.79105  1.0000
  H   H39       1.0  0.46164  0.49442  0.74298  1.0000
  O   O13       1.0  0.16695  0.67361  0.00991  1.0000
  H   H40       1.0  0.16948  0.68795  0.06636  1.0000
  O   O14       1.0  0.15690  0.74440  0.87134  1.0000
  O   O15       1.0  0.17011  0.84451  0.26690  1.0000
  O   O16       1.0  0.17709  0.71939  0.17742  1.0000
  C   C57       1.0  0.90700  0.75264  0.45737  1.0000
  C   C58       1.0  0.89684  0.66317  0.50545  1.0000
  C   C59       1.0  0.90424  0.63582  0.60005  1.0000
  C   C60       1.0  0.91842  0.69319  0.68827  1.0000
  C   C61       1.0  0.88029  0.51235  0.51446  1.0000
  C   C62       1.0  0.86436  0.41634  0.48247  1.0000
  C   C63       1.0  0.86449  0.39296  0.38675  1.0000
  H   H41       1.0  0.87571  0.43853  0.34366  1.0000
  C   C64       1.0  0.84810  0.30272  0.35509  1.0000
  H   H42       1.0  0.84864  0.28762  0.29131  1.0000
  C   C65       1.0  0.83092  0.23535  0.41958  1.0000
  C   C66       1.0  0.83208  0.25621  0.51565  1.0000
  H   H43       1.0  0.82195  0.21017  0.55869  1.0000
  C   C67       1.0  0.84861  0.34697  0.54642  1.0000
  H   H44       1.0  0.84917  0.36162  0.61050  1.0000
  C   C68       1.0  0.75475  0.12465  0.29902  1.0000
  H   H45       1.0  0.72899  0.16796  0.25314  1.0000
  C   C69       1.0  0.79460  0.99296  0.37189  1.0000
  H   H46       1.0  0.79987  0.92978  0.38383  1.0000
  C   C70       1.0  0.83485  0.06105  0.43096  1.0000
  H   H47       1.0  0.87278  0.05376  0.49108  1.0000
  N   N17       1.0  0.89534  0.54145  0.60510  1.0000
  N   N18       1.0  0.88133  0.58393  0.45263  1.0000
  H   H48       1.0  0.87358  0.58006  0.39114  1.0000
  N   N19       1.0  0.80862  0.14358  0.38453  1.0000
  N   N20       1.0  0.74444  0.03415  0.29105  1.0000
  H   H49       1.0  0.71164  0.00558  0.24298  1.0000
  O   O17       1.0  0.91695  0.82639  0.50991  1.0000
  H   H50       1.0  0.91948  0.81205  0.56636  1.0000
  O   O18       1.0  0.90690  0.75560  0.37134  1.0000
  O   O19       1.0  0.92010  0.65549  0.76690  1.0000
  O   O20       1.0  0.92709  0.78061  0.67742  1.0000
  C   C71       1.0  0.84300  0.25264  0.04263  1.0000
  C   C72       1.0  0.85316  0.16317  0.99455  1.0000
  C   C73       1.0  0.84576  0.13582  0.89995  1.0000
  C   C74       1.0  0.83158  0.19319  0.81173  1.0000
  C   C75       1.0  0.86970  0.01235  0.98554  1.0000
  C   C76       1.0  0.88564  0.91634  0.01753  1.0000
  C   C77       1.0  0.88551  0.89296  0.11325  1.0000
  H   H51       1.0  0.87428  0.93853  0.15635  1.0000
  C   C78       1.0  0.90190  0.80272  0.14491  1.0000
  H   H52       1.0  0.90136  0.78762  0.20869  1.0000
  C   C79       1.0  0.91908  0.73535  0.08042  1.0000
  C   C80       1.0  0.91792  0.75621  0.98435  1.0000
  H   H53       1.0  0.92805  0.71017  0.94131  1.0000
  C   C81       1.0  0.90139  0.84697  0.95358  1.0000
  H   H54       1.0  0.90083  0.86162  0.88950  1.0000
  C   C82       1.0  0.99525  0.62465  0.20098  1.0000
  H   H55       1.0  0.52100  0.66796  0.24686  1.0000
  C   C83       1.0  0.95540  0.49296  0.12811  1.0000
  H   H56       1.0  0.95013  0.42978  0.11617  1.0000
  C   C84       1.0  0.91515  0.56105  0.06904  1.0000
  H   H57       1.0  0.87722  0.55376  0.00892  1.0000
  N   N21       1.0  0.85466  0.04145  0.89490  1.0000
  N   N22       1.0  0.86867  0.08393  0.04737  1.0000
  H   H58       1.0  0.87641  0.08006  0.10886  1.0000
  N   N23       1.0  0.94137  0.64358  0.11547  1.0000
  N   N24       1.0  0.50555  0.53415  0.20895  1.0000
  H   H59       1.0  0.53836  0.50558  0.25702  1.0000
  O   O21       1.0  0.83305  0.32639  0.99009  1.0000
  H   H60       1.0  0.83051  0.31205  0.93364  1.0000
  O   O22       1.0  0.84310  0.25560  0.12866  1.0000
  O   O23       1.0  0.82989  0.15549  0.73310  1.0000
  O   O24       1.0  0.82291  0.28061  0.82258  1.0000
  C   C85       1.0  0.59300  0.24736  0.54263  1.0000
  C   C86       1.0  0.60316  0.33683  0.49455  1.0000
  C   C87       1.0  0.59576  0.36418  0.39995  1.0000
  C   C88       1.0  0.58158  0.30681  0.31173  1.0000
  C   C89       1.0  0.61971  0.48765  0.48554  1.0000
  C   C90       1.0  0.63564  0.58366  0.51753  1.0000
  C   C91       1.0  0.63551  0.60704  0.61325  1.0000
  H   H61       1.0  0.62428  0.56147  0.65635  1.0000
  C   C92       1.0  0.65190  0.69728  0.64491  1.0000
  H   H62       1.0  0.65136  0.71238  0.70869  1.0000
  C   C93       1.0  0.66908  0.76465  0.58042  1.0000
  C   C94       1.0  0.66792  0.74379  0.48435  1.0000
  H   H63       1.0  0.67805  0.78983  0.44131  1.0000
  C   C95       1.0  0.65139  0.65303  0.45358  1.0000
  H   H64       1.0  0.65083  0.63838  0.38950  1.0000
  C   C96       1.0  0.74525  0.87535  0.70098  1.0000
  H   H65       1.0  0.77100  0.83204  0.74686  1.0000
  C   C97       1.0  0.70540  0.00704  0.62811  1.0000
  H   H66       1.0  0.70013  0.07022  0.61617  1.0000
  C   C98       1.0  0.66515  0.93895  0.56904  1.0000
  H   H67       1.0  0.62722  0.94624  0.50892  1.0000
  N   N25       1.0  0.60466  0.45855  0.39490  1.0000
  N   N26       1.0  0.61867  0.41607  0.54737  1.0000
  H   H68       1.0  0.62641  0.41994  0.60886  1.0000
  N   N27       1.0  0.69137  0.85642  0.61547  1.0000
  N   N28       1.0  0.75555  0.96585  0.70895  1.0000
  H   H69       1.0  0.78836  0.99442  0.75702  1.0000
  O   O25       1.0  0.58305  0.17361  0.49009  1.0000
  H   H70       1.0  0.58051  0.18795  0.43364  1.0000
  O   O26       1.0  0.59310  0.24440  0.62866  1.0000
  O   O27       1.0  0.57989  0.34451  0.23310  1.0000
  O   O28       1.0  0.57291  0.21939  0.32258  1.0000
  C   C99       1.0  0.65700  0.74736  0.95737  1.0000
  C   C100      1.0  0.64684  0.83683  0.00545  1.0000
  C   C101      1.0  0.65424  0.86418  0.10005  1.0000
  C   C102      1.0  0.66842  0.80681  0.18827  1.0000
  C   C103      1.0  0.63029  0.98765  0.01446  1.0000
  C   C104      1.0  0.61436  0.08366  0.98247  1.0000
  C   C105      1.0  0.61449  0.10704  0.88675  1.0000
  H   H71       1.0  0.62571  0.06147  0.84366  1.0000
  C   C106      1.0  0.59810  0.19728  0.85509  1.0000
  H   H72       1.0  0.59864  0.21238  0.79131  1.0000
  C   C107      1.0  0.58092  0.26465  0.91958  1.0000
  C   C108      1.0  0.58207  0.24379  0.01565  1.0000
  H   H73       1.0  0.57195  0.28983  0.05869  1.0000
  C   C109      1.0  0.59861  0.15303  0.04642  1.0000
  H   H74       1.0  0.59917  0.13838  0.11050  1.0000
  C   C110      1.0  0.50475  0.37535  0.79902  1.0000
  H   H75       1.0  0.97899  0.33204  0.75314  1.0000
  C   C111      1.0  0.54460  0.50704  0.87189  1.0000
  H   H76       1.0  0.54987  0.57022  0.88383  1.0000
  C   C112      1.0  0.58485  0.43895  0.93096  1.0000
  H   H77       1.0  0.62277  0.44624  0.99108  1.0000
  N   N29       1.0  0.64534  0.95855  0.10510  1.0000
  N   N30       1.0  0.63132  0.91607  0.95263  1.0000
  H   H78       1.0  0.62358  0.91994  0.89114  1.0000
  N   N31       1.0  0.55862  0.35642  0.88453  1.0000
  N   N32       1.0  0.99444  0.46585  0.79105  1.0000
  H   H79       1.0  0.96164  0.49442  0.74298  1.0000
  O   O29       1.0  0.66695  0.67361  0.00991  1.0000
  H   H80       1.0  0.66948  0.68795  0.06636  1.0000
  O   O30       1.0  0.65690  0.74440  0.87134  1.0000
  O   O31       1.0  0.67010  0.84451  0.26690  1.0000
  O   O32       1.0  0.67709  0.71939  0.17742  1.0000
