data_image0
_chemical_formula_structural       C3HCHCHCHCHC2HN2H2N2C3HCHCHCHCHC2HN2H2N2I2Cu2C3HCHCHCHCHC2HN2H2N2C3HCHCHCHCHC2HN2H2N2I2Cu2
_chemical_formula_sum              "C36 H32 N16 I4 Cu4"
_cell_length_a       14.674
_cell_length_b       8.408
_cell_length_c       9.584
_cell_angle_alpha    106.7
_cell_angle_beta     98.23
_cell_angle_gamma    107.36

_space_group_name_H-M_alt    "P 1"
_space_group_IT_number       1

loop_
  _space_group_symop_operation_xyz
  'x, y, z'

loop_
  _atom_site_type_symbol
  _atom_site_label
  _atom_site_symmetry_multiplicity
  _atom_site_fract_x
  _atom_site_fract_y
  _atom_site_fract_z
  _atom_site_occupancy
  C   C1        1.0  0.14895  0.54720  0.14750  1.0000
  C   C2        1.0  0.10835  0.72700  0.02780  1.0000
  C   C3        1.0  0.06550  0.79300  0.14120  1.0000
  H   H1        1.0  0.03520  0.87500  0.13810  1.0000
  C   C4        1.0  0.07095  0.72860  0.25950  1.0000
  H   H2        1.0  0.04340  0.77000  0.33750  1.0000
  C   C5        1.0  0.14845  0.91210  0.67140  1.0000
  H   H3        1.0  0.16265  0.95400  0.59420  1.0000
  C   C6        1.0  0.13955  0.02940  0.79990  1.0000
  H   H4        1.0  0.14465  0.14440  0.80650  1.0000
  C   C7        1.0  0.12300  0.97040  0.91700  1.0000
  H   H5        1.0  0.11680  0.04510  0.00490  1.0000
  C   C8        1.0  0.11565  0.79640  0.90190  1.0000
  C   C9        1.0  0.12030  0.68800  0.76590  1.0000
  H   H6        1.0  0.11055  0.56960  0.75290  1.0000
  N   N1        1.0  0.11425  0.60890  0.26690  1.0000
  N   N2        1.0  0.18740  0.41820  0.14350  1.0000
  H   H7        1.0  0.18930  0.37740  0.21620  1.0000
  H   H8        1.0  0.20985  0.37720  0.06840  1.0000
  N   N3        1.0  0.14975  0.60670  0.02860  1.0000
  N   N4        1.0  0.13815  0.74480  0.65170  1.0000
  C   C10       1.0  0.35105  0.45280  0.85250  1.0000
  C   C11       1.0  0.39165  0.27300  0.97220  1.0000
  C   C12       1.0  0.43450  0.20700  0.85880  1.0000
  H   H9        1.0  0.46480  0.12500  0.86190  1.0000
  C   C13       1.0  0.42905  0.27140  0.74050  1.0000
  H   H10       1.0  0.45660  0.23000  0.66250  1.0000
  C   C14       1.0  0.35155  0.08790  0.32860  1.0000
  H   H11       1.0  0.33735  0.04600  0.40580  1.0000
  C   C15       1.0  0.36045  0.97060  0.20010  1.0000
  H   H12       1.0  0.35535  0.85560  0.19350  1.0000
  C   C16       1.0  0.37700  0.02960  0.08300  1.0000
  H   H13       1.0  0.38320  0.95490  0.99510  1.0000
  C   C17       1.0  0.38435  0.20360  0.09810  1.0000
  C   C18       1.0  0.37970  0.31200  0.23410  1.0000
  H   H14       1.0  0.38945  0.43040  0.24710  1.0000
  N   N5        1.0  0.38575  0.39110  0.73310  1.0000
  N   N6        1.0  0.31260  0.58180  0.85650  1.0000
  H   H15       1.0  0.31070  0.62260  0.78380  1.0000
  H   H16       1.0  0.29015  0.62280  0.93160  1.0000
  N   N7        1.0  0.35025  0.39330  0.97140  1.0000
  N   N8        1.0  0.36185  0.25520  0.34830  1.0000
  I   I1        1.0  0.36891  0.73758  0.52725  1.0000
  I   I2        1.0  0.13109  0.26242  0.47275  1.0000
  Cu  Cu1       1.0  0.33725  0.41446  0.53100  1.0000
  Cu  Cu2       1.0  0.16275  0.58554  0.46900  1.0000
  C   C19       1.0  0.64895  0.54720  0.14750  1.0000
  C   C20       1.0  0.60835  0.72700  0.02780  1.0000
  C   C21       1.0  0.56550  0.79300  0.14120  1.0000
  H   H17       1.0  0.53520  0.87500  0.13810  1.0000
  C   C22       1.0  0.57095  0.72860  0.25950  1.0000
  H   H18       1.0  0.54340  0.77000  0.33750  1.0000
  C   C23       1.0  0.64845  0.91210  0.67140  1.0000
  H   H19       1.0  0.66265  0.95400  0.59420  1.0000
  C   C24       1.0  0.63955  0.02940  0.79990  1.0000
  H   H20       1.0  0.64465  0.14440  0.80650  1.0000
  C   C25       1.0  0.62300  0.97040  0.91700  1.0000
  H   H21       1.0  0.61680  0.04510  0.00490  1.0000
  C   C26       1.0  0.61565  0.79640  0.90190  1.0000
  C   C27       1.0  0.62030  0.68800  0.76590  1.0000
  H   H22       1.0  0.61055  0.56960  0.75290  1.0000
  N   N9        1.0  0.61425  0.60890  0.26690  1.0000
  N   N10       1.0  0.68740  0.41820  0.14350  1.0000
  H   H23       1.0  0.68930  0.37740  0.21620  1.0000
  H   H24       1.0  0.70985  0.37720  0.06840  1.0000
  N   N11       1.0  0.64975  0.60670  0.02860  1.0000
  N   N12       1.0  0.63815  0.74480  0.65170  1.0000
  C   C28       1.0  0.85105  0.45280  0.85250  1.0000
  C   C29       1.0  0.89165  0.27300  0.97220  1.0000
  C   C30       1.0  0.93450  0.20700  0.85880  1.0000
  H   H25       1.0  0.96480  0.12500  0.86190  1.0000
  C   C31       1.0  0.92905  0.27140  0.74050  1.0000
  H   H26       1.0  0.95660  0.23000  0.66250  1.0000
  C   C32       1.0  0.85155  0.08790  0.32860  1.0000
  H   H27       1.0  0.83735  0.04600  0.40580  1.0000
  C   C33       1.0  0.86045  0.97060  0.20010  1.0000
  H   H28       1.0  0.85535  0.85560  0.19350  1.0000
  C   C34       1.0  0.87700  0.02960  0.08300  1.0000
  H   H29       1.0  0.88320  0.95490  0.99510  1.0000
  C   C35       1.0  0.88435  0.20360  0.09810  1.0000
  C   C36       1.0  0.87970  0.31200  0.23410  1.0000
  H   H30       1.0  0.88945  0.43040  0.24710  1.0000
  N   N13       1.0  0.88575  0.39110  0.73310  1.0000
  N   N14       1.0  0.81260  0.58180  0.85650  1.0000
  H   H31       1.0  0.81070  0.62260  0.78380  1.0000
  H   H32       1.0  0.79015  0.62280  0.93160  1.0000
  N   N15       1.0  0.85025  0.39330  0.97140  1.0000
  N   N16       1.0  0.86185  0.25520  0.34830  1.0000
  I   I3        1.0  0.86891  0.73758  0.52725  1.0000
  I   I4        1.0  0.63109  0.26242  0.47275  1.0000
  Cu  Cu3       1.0  0.83725  0.41446  0.53100  1.0000
  Cu  Cu4       1.0  0.66275  0.58554  0.46900  1.0000
