data_image0
_chemical_formula_structural       CHCHCHCHC3HCHCN4H2CHCHCHCHC3HCHCN3H2NCHCHCHCHC3HCHCN4H2CHCHCHCHC3HCHCN3H2NO2HC6HCHO2H2CH2CHOHOC3H2CO2HC3O2C3HCHC3HCHO3HOHCoCHCHCHCHC3HCHCN4H2CHCHCHCHC3HCHCN3H2NCHCHCHCHC3HCHCN4H2CHCHCHCHC3HCHCN3H2NO2HC6HCHO2H2CH2CHOHOC3H2CO2HC3O2C3HCHC3HCHO3HOHCo
_chemical_formula_sum              "C120 H100 N32 O28 Co2"
_cell_length_a       15.214
_cell_length_b       10.131
_cell_length_c       18.949
_cell_angle_alpha    86.816
_cell_angle_beta     79.942
_cell_angle_gamma    78.363

_space_group_name_H-M_alt    "P 1"
_space_group_IT_number       1

loop_
  _space_group_symop_operation_xyz
  'x, y, z'

loop_
  _atom_site_type_symbol
  _atom_site_label
  _atom_site_symmetry_multiplicity
  _atom_site_fract_x
  _atom_site_fract_y
  _atom_site_fract_z
  _atom_site_occupancy
  C   C1        1.0  0.00960  0.84761  0.87428  1.0000
  H   H1        1.0  0.49722  0.76927  0.91264  1.0000
  C   C2        1.0  0.02918  0.07201  0.84896  1.0000
  H   H2        1.0  0.03315  0.16954  0.86613  1.0000
  C   C3        1.0  0.04235  0.04995  0.77578  1.0000
  H   H3        1.0  0.05170  0.13126  0.73782  1.0000
  C   C4        1.0  0.04110  0.92321  0.75206  1.0000
  H   H4        1.0  0.05243  0.90579  0.69533  1.0000
  C   C5        1.0  0.02278  0.82035  0.80127  1.0000
  C   C6        1.0  0.02097  0.68568  0.77551  1.0000
  C   C7        1.0  0.47883  0.59058  0.81839  1.0000
  H   H5        1.0  0.44191  0.61198  0.87191  1.0000
  C   C8        1.0  0.48282  0.46524  0.78990  1.0000
  H   H6        1.0  0.45053  0.39053  0.82148  1.0000
  C   C9        1.0  0.06489  0.53115  0.68059  1.0000
  N   N1        1.0  0.01331  0.97130  0.89749  1.0000
  N   N2        1.0  0.06211  0.65300  0.70755  1.0000
  N   N3        1.0  0.02595  0.43760  0.72192  1.0000
  N   N4        1.0  0.10934  0.50199  0.60914  1.0000
  H   H7        1.0  0.10977  0.41085  0.58627  1.0000
  H   H8        1.0  0.13997  0.57395  0.57817  1.0000
  C   C10       1.0  0.19693  0.87543  0.17454  1.0000
  H   H9        1.0  0.18720  0.78275  0.15462  1.0000
  C   C11       1.0  0.16628  0.90527  0.24615  1.0000
  H   H10       1.0  0.13516  0.83405  0.28155  1.0000
  C   C12       1.0  0.17624  0.02700  0.27145  1.0000
  H   H11       1.0  0.15252  0.04894  0.32731  1.0000
  C   C13       1.0  0.24954  0.08182  0.15377  1.0000
  H   H12       1.0  0.28543  0.14531  0.11688  1.0000
  C   C14       1.0  0.21628  0.11939  0.22513  1.0000
  C   C15       1.0  0.22199  0.25155  0.25257  1.0000
  C   C16       1.0  0.24242  0.35994  0.20725  1.0000
  H   H13       1.0  0.25555  0.35376  0.14957  1.0000
  C   C17       1.0  0.24315  0.48150  0.23797  1.0000
  H   H14       1.0  0.25894  0.56610  0.20429  1.0000
  C   C18       1.0  0.20420  0.38881  0.35353  1.0000
  N   N5        1.0  0.23866  0.96254  0.13036  1.0000
  N   N6        1.0  0.20317  0.27009  0.32454  1.0000
  N   N7        1.0  0.18355  0.40273  0.42929  1.0000
  H   H15       1.0  0.16403  0.32395  0.46183  1.0000
  H   H16       1.0  0.18725  0.49065  0.45351  1.0000
  N   N8        1.0  0.22397  0.49392  0.31025  1.0000
  C   C19       1.0  0.49040  0.15239  0.12572  1.0000
  H   H17       1.0  0.00277  0.23073  0.08736  1.0000
  C   C20       1.0  0.47082  0.92799  0.15104  1.0000
  H   H18       1.0  0.46685  0.83046  0.13387  1.0000
  C   C21       1.0  0.45765  0.95005  0.22422  1.0000
  H   H19       1.0  0.44830  0.86874  0.26218  1.0000
  C   C22       1.0  0.45890  0.07679  0.24794  1.0000
  H   H20       1.0  0.44756  0.09421  0.30467  1.0000
  C   C23       1.0  0.47722  0.17965  0.19873  1.0000
  C   C24       1.0  0.47903  0.31432  0.22449  1.0000
  C   C25       1.0  0.02118  0.40942  0.18161  1.0000
  H   H21       1.0  0.05809  0.38802  0.12809  1.0000
  C   C26       1.0  0.01718  0.53476  0.21010  1.0000
  H   H22       1.0  0.04947  0.60947  0.17852  1.0000
  C   C27       1.0  0.43511  0.46885  0.31941  1.0000
  N   N9        1.0  0.48669  0.02870  0.10251  1.0000
  N   N10       1.0  0.43788  0.34700  0.29245  1.0000
  N   N11       1.0  0.47405  0.56240  0.27808  1.0000
  N   N12       1.0  0.39066  0.49801  0.39086  1.0000
  H   H23       1.0  0.39023  0.58915  0.41373  1.0000
  H   H24       1.0  0.36002  0.42605  0.42183  1.0000
  C   C28       1.0  0.30307  0.12457  0.82546  1.0000
  H   H25       1.0  0.31280  0.21725  0.84538  1.0000
  C   C29       1.0  0.33371  0.09473  0.75385  1.0000
  H   H26       1.0  0.36483  0.16595  0.71845  1.0000
  C   C30       1.0  0.32377  0.97300  0.72855  1.0000
  H   H27       1.0  0.34748  0.95106  0.67269  1.0000
  C   C31       1.0  0.25045  0.91818  0.84623  1.0000
  H   H28       1.0  0.21457  0.85469  0.88312  1.0000
  C   C32       1.0  0.28372  0.88061  0.77487  1.0000
  C   C33       1.0  0.27801  0.74845  0.74743  1.0000
  C   C34       1.0  0.25758  0.64006  0.79275  1.0000
  H   H29       1.0  0.24445  0.64624  0.85043  1.0000
  C   C35       1.0  0.25684  0.51850  0.76203  1.0000
  H   H30       1.0  0.24105  0.43390  0.79571  1.0000
  C   C36       1.0  0.29580  0.61119  0.64647  1.0000
  N   N13       1.0  0.26134  0.03746  0.86964  1.0000
  N   N14       1.0  0.29683  0.72991  0.67546  1.0000
  N   N15       1.0  0.31644  0.59727  0.57071  1.0000
  H   H31       1.0  0.33597  0.67605  0.53817  1.0000
  H   H32       1.0  0.31275  0.50935  0.54649  1.0000
  N   N16       1.0  0.27602  0.50608  0.68975  1.0000
  O   O1        1.0  0.21267  0.71149  0.41114  1.0000
  O   O2        1.0  0.31321  0.80072  0.33035  1.0000
  H   H33       1.0  0.30910  0.72611  0.29834  1.0000
  C   C37       1.0  0.25705  0.79943  0.39664  1.0000
  C   C38       1.0  0.25257  0.90245  0.44945  1.0000
  C   C39       1.0  0.20927  0.88927  0.52046  1.0000
  C   C40       1.0  0.24294  0.20057  0.60336  1.0000
  C   C41       1.0  0.24743  0.09755  0.55055  1.0000
  C   C42       1.0  0.29073  0.11073  0.47954  1.0000
  H   H34       1.0  0.32204  0.19658  0.46244  1.0000
  C   C43       1.0  0.20738  0.98551  0.57066  1.0000
  H   H35       1.0  0.17508  0.97199  0.62525  1.0000
  O   O3        1.0  0.28732  0.28851  0.58886  1.0000
  O   O4        1.0  0.18679  0.19928  0.66965  1.0000
  H   H36       1.0  0.19091  0.27389  0.70166  1.0000
  H   H37       1.0  0.17796  0.80342  0.53756  1.0000
  C   C44       1.0  0.29262  0.01449  0.42934  1.0000
  H   H38       1.0  0.32492  0.02801  0.37475  1.0000
  H   H39       1.0  0.02069  0.17348  0.40419  1.0000
  C   C45       1.0  0.48354  0.03456  0.57175  1.0000
  H   H40       1.0  0.47159  0.06010  0.62740  1.0000
  O   O5        1.0  0.46137  0.30881  0.61091  1.0000
  H   H41       1.0  0.44815  0.40962  0.61711  1.0000
  O   O6        1.0  0.49501  0.36225  0.49324  1.0000
  C   C46       1.0  0.48760  0.90168  0.55358  1.0000
  C   C47       1.0  0.01646  0.96544  0.42825  1.0000
  C   C48       1.0  0.00467  0.86605  0.48140  1.0000
  H   H42       1.0  0.02841  0.93990  0.37260  1.0000
  H   H43       1.0  0.47931  0.82652  0.59581  1.0000
  C   C49       1.0  0.01470  0.72525  0.46100  1.0000
  O   O7        1.0  0.03863  0.69119  0.38909  1.0000
  O   O8        1.0  0.00499  0.63775  0.50676  1.0000
  H   H44       1.0  0.05185  0.59038  0.38289  1.0000
  C   C50       1.0  0.48530  0.27475  0.53900  1.0000
  C   C51       1.0  0.49534  0.13395  0.51860  1.0000
  C   C52       1.0  0.01239  0.09832  0.44642  1.0000
  O   O9        1.0  0.09095  0.84373  0.00683  1.0000
  O   O10       1.0  0.01176  0.68041  0.03297  1.0000
  C   C53       1.0  0.41214  0.28275  0.98241  1.0000
  C   C54       1.0  0.32781  0.39172  0.99174  1.0000
  C   C55       1.0  0.33164  0.51756  0.01785  1.0000
  H   H45       1.0  0.39376  0.53315  0.03338  1.0000
  C   C56       1.0  0.24456  0.37630  0.97395  1.0000
  H   H46       1.0  0.23773  0.28468  0.95169  1.0000
  C   C57       1.0  0.08785  0.71725  0.01759  1.0000
  C   C58       1.0  0.17219  0.60828  0.00826  1.0000
  C   C59       1.0  0.16836  0.48244  0.98215  1.0000
  H   H47       1.0  0.10623  0.46685  0.96662  1.0000
  C   C60       1.0  0.25544  0.62370  0.02605  1.0000
  H   H48       1.0  0.26227  0.71532  0.04831  1.0000
  O   O11       1.0  0.40904  0.15627  0.99317  1.0000
  O   O12       1.0  0.48824  0.31959  0.96703  1.0000
  O   O13       1.0  0.09197  0.09660  0.98143  1.0000
  H   H49       1.0  0.12461  0.07932  0.02260  1.0000
  O   O14       1.0  0.40802  0.90340  0.01857  1.0000
  H   H50       1.0  0.37539  0.92068  0.97740  1.0000
  Co  Co1       1.0  0.00000  0.00000  0.00000  1.0000
  C   C61       1.0  0.50960  0.84761  0.87428  1.0000
  H   H51       1.0  0.99722  0.76927  0.91264  1.0000
  C   C62       1.0  0.52918  0.07201  0.84896  1.0000
  H   H52       1.0  0.53315  0.16954  0.86613  1.0000
  C   C63       1.0  0.54235  0.04995  0.77578  1.0000
  H   H53       1.0  0.55170  0.13126  0.73782  1.0000
  C   C64       1.0  0.54110  0.92321  0.75206  1.0000
  H   H54       1.0  0.55243  0.90579  0.69533  1.0000
  C   C65       1.0  0.52278  0.82035  0.80127  1.0000
  C   C66       1.0  0.52097  0.68568  0.77551  1.0000
  C   C67       1.0  0.97882  0.59058  0.81839  1.0000
  H   H55       1.0  0.94191  0.61198  0.87191  1.0000
  C   C68       1.0  0.98282  0.46524  0.78990  1.0000
  H   H56       1.0  0.95053  0.39053  0.82148  1.0000
  C   C69       1.0  0.56489  0.53115  0.68059  1.0000
  N   N17       1.0  0.51331  0.97130  0.89749  1.0000
  N   N18       1.0  0.56211  0.65300  0.70755  1.0000
  N   N19       1.0  0.52595  0.43760  0.72192  1.0000
  N   N20       1.0  0.60934  0.50199  0.60914  1.0000
  H   H57       1.0  0.60977  0.41085  0.58627  1.0000
  H   H58       1.0  0.63998  0.57395  0.57817  1.0000
  C   C70       1.0  0.69693  0.87543  0.17454  1.0000
  H   H59       1.0  0.68719  0.78275  0.15462  1.0000
  C   C71       1.0  0.66628  0.90527  0.24615  1.0000
  H   H60       1.0  0.63516  0.83405  0.28155  1.0000
  C   C72       1.0  0.67623  0.02700  0.27145  1.0000
  H   H61       1.0  0.65252  0.04894  0.32731  1.0000
  C   C73       1.0  0.74954  0.08182  0.15377  1.0000
  H   H62       1.0  0.78543  0.14531  0.11688  1.0000
  C   C74       1.0  0.71628  0.11939  0.22513  1.0000
  C   C75       1.0  0.72199  0.25155  0.25257  1.0000
  C   C76       1.0  0.74242  0.35994  0.20725  1.0000
  H   H63       1.0  0.75555  0.35376  0.14957  1.0000
  C   C77       1.0  0.74315  0.48150  0.23797  1.0000
  H   H64       1.0  0.75894  0.56610  0.20429  1.0000
  C   C78       1.0  0.70420  0.38881  0.35353  1.0000
  N   N21       1.0  0.73865  0.96254  0.13036  1.0000
  N   N22       1.0  0.70317  0.27009  0.32454  1.0000
  N   N23       1.0  0.68356  0.40273  0.42929  1.0000
  H   H65       1.0  0.66403  0.32395  0.46183  1.0000
  H   H66       1.0  0.68725  0.49065  0.45351  1.0000
  N   N24       1.0  0.72397  0.49392  0.31025  1.0000
  C   C79       1.0  0.99040  0.15239  0.12572  1.0000
  H   H67       1.0  0.50277  0.23073  0.08736  1.0000
  C   C80       1.0  0.97082  0.92799  0.15104  1.0000
  H   H68       1.0  0.96685  0.83046  0.13387  1.0000
  C   C81       1.0  0.95765  0.95005  0.22422  1.0000
  H   H69       1.0  0.94830  0.86874  0.26218  1.0000
  C   C82       1.0  0.95890  0.07679  0.24794  1.0000
  H   H70       1.0  0.94756  0.09421  0.30467  1.0000
  C   C83       1.0  0.97721  0.17965  0.19873  1.0000
  C   C84       1.0  0.97903  0.31432  0.22449  1.0000
  C   C85       1.0  0.52117  0.40942  0.18161  1.0000
  H   H71       1.0  0.55809  0.38802  0.12809  1.0000
  C   C86       1.0  0.51717  0.53476  0.21010  1.0000
  H   H72       1.0  0.54947  0.60947  0.17852  1.0000
  C   C87       1.0  0.93510  0.46885  0.31941  1.0000
  N   N25       1.0  0.98669  0.02870  0.10251  1.0000
  N   N26       1.0  0.93788  0.34700  0.29245  1.0000
  N   N27       1.0  0.97405  0.56240  0.27808  1.0000
  N   N28       1.0  0.89066  0.49801  0.39086  1.0000
  H   H73       1.0  0.89023  0.58915  0.41373  1.0000
  H   H74       1.0  0.86002  0.42605  0.42183  1.0000
  C   C88       1.0  0.80307  0.12457  0.82546  1.0000
  H   H75       1.0  0.81280  0.21725  0.84538  1.0000
  C   C89       1.0  0.83371  0.09473  0.75385  1.0000
  H   H76       1.0  0.86483  0.16595  0.71845  1.0000
  C   C90       1.0  0.82376  0.97300  0.72855  1.0000
  H   H77       1.0  0.84748  0.95106  0.67269  1.0000
  C   C91       1.0  0.75045  0.91818  0.84623  1.0000
  H   H78       1.0  0.71457  0.85469  0.88312  1.0000
  C   C92       1.0  0.78372  0.88061  0.77487  1.0000
  C   C93       1.0  0.77801  0.74845  0.74743  1.0000
  C   C94       1.0  0.75758  0.64006  0.79275  1.0000
  H   H79       1.0  0.74445  0.64624  0.85043  1.0000
  C   C95       1.0  0.75684  0.51850  0.76203  1.0000
  H   H80       1.0  0.74105  0.43390  0.79571  1.0000
  C   C96       1.0  0.79580  0.61119  0.64647  1.0000
  N   N29       1.0  0.76134  0.03746  0.86964  1.0000
  N   N30       1.0  0.79683  0.72991  0.67546  1.0000
  N   N31       1.0  0.81644  0.59727  0.57071  1.0000
  H   H81       1.0  0.83597  0.67605  0.53817  1.0000
  H   H82       1.0  0.81275  0.50935  0.54649  1.0000
  N   N32       1.0  0.77602  0.50608  0.68975  1.0000
  O   O15       1.0  0.71267  0.71149  0.41114  1.0000
  O   O16       1.0  0.81320  0.80072  0.33035  1.0000
  H   H83       1.0  0.80910  0.72611  0.29834  1.0000
  C   C97       1.0  0.75705  0.79943  0.39664  1.0000
  C   C98       1.0  0.75257  0.90245  0.44945  1.0000
  C   C99       1.0  0.70927  0.88927  0.52046  1.0000
  C   C100      1.0  0.74294  0.20057  0.60336  1.0000
  C   C101      1.0  0.74743  0.09755  0.55055  1.0000
  C   C102      1.0  0.79073  0.11073  0.47954  1.0000
  H   H84       1.0  0.82204  0.19658  0.46244  1.0000
  C   C103      1.0  0.70738  0.98551  0.57066  1.0000
  H   H85       1.0  0.67508  0.97199  0.62525  1.0000
  O   O17       1.0  0.78732  0.28851  0.58886  1.0000
  O   O18       1.0  0.68679  0.19928  0.66965  1.0000
  H   H86       1.0  0.69090  0.27389  0.70166  1.0000
  H   H87       1.0  0.67796  0.80342  0.53756  1.0000
  C   C104      1.0  0.79262  0.01449  0.42934  1.0000
  H   H88       1.0  0.82491  0.02801  0.37475  1.0000
  H   H89       1.0  0.52069  0.17348  0.40419  1.0000
  C   C105      1.0  0.98353  0.03456  0.57175  1.0000
  H   H90       1.0  0.97159  0.06010  0.62740  1.0000
  O   O19       1.0  0.96137  0.30881  0.61091  1.0000
  H   H91       1.0  0.94815  0.40962  0.61711  1.0000
  O   O20       1.0  0.99501  0.36225  0.49324  1.0000
  C   C106      1.0  0.98760  0.90168  0.55358  1.0000
  C   C107      1.0  0.51646  0.96544  0.42825  1.0000
  C   C108      1.0  0.50467  0.86605  0.48140  1.0000
  H   H92       1.0  0.52841  0.93990  0.37260  1.0000
  H   H93       1.0  0.97931  0.82652  0.59581  1.0000
  C   C109      1.0  0.51470  0.72525  0.46100  1.0000
  O   O21       1.0  0.53863  0.69119  0.38909  1.0000
  O   O22       1.0  0.50499  0.63775  0.50676  1.0000
  H   H94       1.0  0.55185  0.59038  0.38289  1.0000
  C   C110      1.0  0.98530  0.27475  0.53900  1.0000
  C   C111      1.0  0.99533  0.13395  0.51860  1.0000
  C   C112      1.0  0.51239  0.09832  0.44642  1.0000
  O   O23       1.0  0.59095  0.84373  0.00683  1.0000
  O   O24       1.0  0.51176  0.68041  0.03297  1.0000
  C   C113      1.0  0.91214  0.28275  0.98241  1.0000
  C   C114      1.0  0.82781  0.39172  0.99174  1.0000
  C   C115      1.0  0.83163  0.51756  0.01785  1.0000
  H   H95       1.0  0.89376  0.53315  0.03338  1.0000
  C   C116      1.0  0.74456  0.37630  0.97395  1.0000
  H   H96       1.0  0.73773  0.28468  0.95169  1.0000
  C   C117      1.0  0.58785  0.71725  0.01759  1.0000
  C   C118      1.0  0.67219  0.60828  0.00826  1.0000
  C   C119      1.0  0.66836  0.48244  0.98215  1.0000
  H   H97       1.0  0.60623  0.46685  0.96662  1.0000
  C   C120      1.0  0.75543  0.62370  0.02605  1.0000
  H   H98       1.0  0.76227  0.71532  0.04831  1.0000
  O   O25       1.0  0.90904  0.15627  0.99317  1.0000
  O   O26       1.0  0.98824  0.31959  0.96703  1.0000
  O   O27       1.0  0.59197  0.09660  0.98143  1.0000
  H   H99       1.0  0.62461  0.07932  0.02260  1.0000
  O   O28       1.0  0.90802  0.90340  0.01857  1.0000
  H   H100      1.0  0.87539  0.92068  0.97740  1.0000
  Co  Co2       1.0  0.50000  0.00000  0.00000  1.0000
