data_image0
_chemical_formula_structural       P4O12N4CHC7HCHC2HCHC3HCHC4HCHC2HCHC2HCHC2HCHC3HC4HCHCHCHCHCHCHCHP4O12N4CHC7HCHC2HCHC3HCHC4HCHC2HCHC2HCHC2HCHC3HC4HCHCHCHCHCHCHCHNi4
_chemical_formula_sum              "P8 O24 N8 C88 H48 Ni4"
_cell_length_a       9.561
_cell_length_b       15.086
_cell_length_c       16.722
_cell_angle_alpha    94.723
_cell_angle_beta     97.602
_cell_angle_gamma    97.88

_space_group_name_H-M_alt    "P 1"
_space_group_IT_number       1

loop_
  _space_group_symop_operation_xyz
  'x, y, z'

loop_
  _atom_site_type_symbol
  _atom_site_label
  _atom_site_symmetry_multiplicity
  _atom_site_fract_x
  _atom_site_fract_y
  _atom_site_fract_z
  _atom_site_occupancy
  P   P1        1.0  0.43520  0.80700  0.97940  1.0000
  P   P2        1.0  0.84360  0.14670  0.86700  1.0000
  P   P3        1.0  0.15210  0.12610  0.09290  1.0000
  P   P4        1.0  0.41310  0.97270  0.75660  1.0000
  O   O1        1.0  0.48900  0.90720  0.99910  1.0000
  O   O2        1.0  0.29400  0.10240  0.11530  1.0000
  O   O3        1.0  0.69800  0.09620  0.86570  1.0000
  O   O4        1.0  0.95400  0.08470  0.84140  1.0000
  O   O5        1.0  0.90500  0.19970  0.94820  1.0000
  O   O6        1.0  0.27400  0.77880  0.95730  1.0000
  O   O7        1.0  0.50100  0.77290  0.90330  1.0000
  O   O8        1.0  0.43200  0.96860  0.84750  1.0000
  O   O9        1.0  0.14700  0.17790  0.01540  1.0000
  O   O10       1.0  0.25800  0.96780  0.71320  1.0000
  O   O11       1.0  0.04100  0.04180  0.07980  1.0000
  O   O12       1.0  0.50200  0.06290  0.74180  1.0000
  N   N1        1.0  0.76600  0.50170  0.32600  1.0000
  N   N2        1.0  0.71000  0.52840  0.54850  1.0000
  N   N3        1.0  0.85000  0.42080  0.45870  1.0000
  N   N4        1.0  0.66400  0.62520  0.41850  1.0000
  C   C1        1.0  0.97500  0.32200  0.52500  1.0000
  H   H1        1.0  0.01380  0.29080  0.56820  1.0000
  C   C2        1.0  0.63000  0.68600  0.47600  1.0000
  C   C3        1.0  0.64600  0.66100  0.34300  1.0000
  C   C4        1.0  0.65700  0.62300  0.26900  1.0000
  C   C5        1.0  0.70400  0.53900  0.26400  1.0000
  C   C6        1.0  0.83200  0.43500  0.28900  1.0000
  C   C7        1.0  0.98600  0.31800  0.27400  1.0000
  C   C8        1.0  0.96100  0.22600  0.27500  1.0000
  H   H2        1.0  0.90530  0.20130  0.31380  1.0000
  C   C9        1.0  0.01400  0.16700  0.22200  1.0000
  H   H3        1.0  0.99250  0.10410  0.22230  1.0000
  C   C10       1.0  0.10300  0.20500  0.16600  1.0000
  C   C11       1.0  0.14000  0.29700  0.16900  1.0000
  H   H4        1.0  0.20720  0.32320  0.13750  1.0000
  C   C12       1.0  0.07400  0.35000  0.21900  1.0000
  H   H5        1.0  0.08910  0.41270  0.21590  1.0000
  C   C13       1.0  0.72700  0.46300  0.60700  1.0000
  C   C14       1.0  0.81200  0.39900  0.59900  1.0000
  C   C15       1.0  0.58800  0.76200  0.44000  1.0000
  H   H6        1.0  0.55510  0.81140  0.46670  1.0000
  C   C16       1.0  0.60500  0.75100  0.36000  1.0000
  H   H7        1.0  0.59170  0.79350  0.32190  1.0000
  C   C17       1.0  0.92500  0.37500  0.41100  1.0000
  C   C18       1.0  0.62000  0.67300  0.55500  1.0000
  C   C19       1.0  0.59700  0.66200  0.19600  1.0000
  C   C20       1.0  0.67200  0.74400  0.17700  1.0000
  H   H8        1.0  0.75720  0.76840  0.21230  1.0000
  C   C21       1.0  0.63500  0.79200  0.11100  1.0000
  H   H9        1.0  0.69020  0.84480  0.09750  1.0000
  C   C22       1.0  0.50100  0.75000  0.06600  1.0000
  C   C23       1.0  0.42200  0.67200  0.08000  1.0000
  H   H10       1.0  0.33560  0.64770  0.04580  1.0000
  C   C24       1.0  0.47500  0.62900  0.14600  1.0000
  H   H11       1.0  0.42160  0.57460  0.15700  1.0000
  C   C25       1.0  0.82800  0.34000  0.66500  1.0000
  C   C26       1.0  0.89000  0.37000  0.74200  1.0000
  H   H12       1.0  0.92930  0.43190  0.75450  1.0000
  C   C27       1.0  0.89600  0.31400  0.80100  1.0000
  H   H13       1.0  0.94230  0.33750  0.85380  1.0000
  C   C28       1.0  0.83500  0.22000  0.78800  1.0000
  C   C29       1.0  0.77700  0.19000  0.70800  1.0000
  H   H14       1.0  0.74280  0.12810  0.69480  1.0000
  C   C30       1.0  0.76500  0.24800  0.64600  1.0000
  H   H15       1.0  0.71700  0.22550  0.59320  1.0000
  C   C31       1.0  0.87300  0.38100  0.53300  1.0000
  C   C32       1.0  0.64400  0.59200  0.58900  1.0000
  C   C33       1.0  0.01100  0.31500  0.45200  1.0000
  H   H16       1.0  0.07570  0.28030  0.43090  1.0000
  C   C34       1.0  0.90800  0.37700  0.32500  1.0000
  C   C35       1.0  0.48600  0.87900  0.70300  1.0000
  C   C36       1.0  0.57000  0.74200  0.60800  1.0000
  C   C37       1.0  0.64900  0.81800  0.63600  1.0000
  H   H17       1.0  0.74450  0.82360  0.62410  1.0000
  C   C38       1.0  0.61400  0.89300  0.68000  1.0000
  H   H18       1.0  0.67640  0.94880  0.69240  1.0000
  C   C39       1.0  0.71800  0.49600  0.18200  1.0000
  H   H19       1.0  0.68090  0.51120  0.13000  1.0000
  C   C40       1.0  0.79600  0.43100  0.20100  1.0000
  H   H20       1.0  0.82290  0.38830  0.16270  1.0000
  C   C41       1.0  0.61000  0.56500  0.66400  1.0000
  H   H21       1.0  0.56450  0.59740  0.70170  1.0000
  C   C42       1.0  0.65600  0.48800  0.67200  1.0000
  H   H22       1.0  0.64210  0.45380  0.71550  1.0000
  C   C43       1.0  0.37800  0.83700  0.63200  1.0000
  H   H23       1.0  0.29450  0.86390  0.61720  1.0000
  C   C44       1.0  0.42400  0.75400  0.58600  1.0000
  H   H24       1.0  0.36700  0.72050  0.53950  1.0000
  P   P5        1.0  0.56480  0.19300  0.02060  1.0000
  P   P6        1.0  0.15640  0.85330  0.13300  1.0000
  P   P7        1.0  0.84790  0.87390  0.90710  1.0000
  P   P8        1.0  0.58690  0.02730  0.24340  1.0000
  O   O13       1.0  0.51100  0.09280  0.00090  1.0000
  O   O14       1.0  0.70600  0.89760  0.88470  1.0000
  O   O15       1.0  0.30200  0.90380  0.13430  1.0000
  O   O16       1.0  0.04600  0.91530  0.15860  1.0000
  O   O17       1.0  0.09500  0.80030  0.05180  1.0000
  O   O18       1.0  0.72600  0.22120  0.04270  1.0000
  O   O19       1.0  0.49900  0.22710  0.09670  1.0000
  O   O20       1.0  0.56800  0.03140  0.15250  1.0000
  O   O21       1.0  0.85300  0.82210  0.98460  1.0000
  O   O22       1.0  0.74200  0.03220  0.28680  1.0000
  O   O23       1.0  0.95900  0.95820  0.92020  1.0000
  O   O24       1.0  0.49800  0.93710  0.25820  1.0000
  N   N5        1.0  0.23400  0.49830  0.67400  1.0000
  N   N6        1.0  0.29000  0.47160  0.45150  1.0000
  N   N7        1.0  0.15000  0.57920  0.54130  1.0000
  N   N8        1.0  0.33600  0.37480  0.58150  1.0000
  C   C45       1.0  0.02500  0.67800  0.47500  1.0000
  H   H25       1.0  0.98620  0.70920  0.43180  1.0000
  C   C46       1.0  0.37000  0.31400  0.52400  1.0000
  C   C47       1.0  0.35400  0.33900  0.65700  1.0000
  C   C48       1.0  0.34300  0.37700  0.73100  1.0000
  C   C49       1.0  0.29600  0.46100  0.73600  1.0000
  C   C50       1.0  0.16800  0.56500  0.71100  1.0000
  C   C51       1.0  0.01400  0.68200  0.72600  1.0000
  C   C52       1.0  0.03900  0.77400  0.72500  1.0000
  H   H26       1.0  0.09470  0.79870  0.68620  1.0000
  C   C53       1.0  0.98600  0.83300  0.77800  1.0000
  H   H27       1.0  0.00750  0.89590  0.77770  1.0000
  C   C54       1.0  0.89700  0.79500  0.83400  1.0000
  C   C55       1.0  0.86000  0.70300  0.83100  1.0000
  H   H28       1.0  0.79280  0.67680  0.86250  1.0000
  C   C56       1.0  0.92600  0.65000  0.78100  1.0000
  H   H29       1.0  0.91090  0.58730  0.78410  1.0000
  C   C57       1.0  0.27300  0.53700  0.39300  1.0000
  C   C58       1.0  0.18800  0.60100  0.40100  1.0000
  C   C59       1.0  0.41200  0.23800  0.56000  1.0000
  H   H30       1.0  0.44490  0.18860  0.53330  1.0000
  C   C60       1.0  0.39500  0.24900  0.64000  1.0000
  H   H31       1.0  0.40830  0.20650  0.67810  1.0000
  C   C61       1.0  0.07500  0.62500  0.58900  1.0000
  C   C62       1.0  0.38000  0.32700  0.44500  1.0000
  C   C63       1.0  0.40300  0.33800  0.80400  1.0000
  C   C64       1.0  0.32800  0.25600  0.82300  1.0000
  H   H32       1.0  0.24280  0.23160  0.78770  1.0000
  C   C65       1.0  0.36500  0.20800  0.88900  1.0000
  H   H33       1.0  0.30980  0.15520  0.90250  1.0000
  C   C66       1.0  0.49900  0.25000  0.93400  1.0000
  C   C67       1.0  0.57800  0.32800  0.92000  1.0000
  H   H34       1.0  0.66440  0.35230  0.95420  1.0000
  C   C68       1.0  0.52500  0.37100  0.85400  1.0000
  H   H35       1.0  0.57840  0.42540  0.84300  1.0000
  C   C69       1.0  0.17200  0.66000  0.33500  1.0000
  C   C70       1.0  0.11000  0.63000  0.25800  1.0000
  H   H36       1.0  0.07070  0.56810  0.24550  1.0000
  C   C71       1.0  0.10400  0.68600  0.19900  1.0000
  H   H37       1.0  0.05770  0.66250  0.14620  1.0000
  C   C72       1.0  0.16500  0.78000  0.21200  1.0000
  C   C73       1.0  0.22300  0.81000  0.29200  1.0000
  H   H38       1.0  0.25720  0.87190  0.30520  1.0000
  C   C74       1.0  0.23500  0.75200  0.35400  1.0000
  H   H39       1.0  0.28300  0.77450  0.40680  1.0000
  C   C75       1.0  0.12700  0.61900  0.46700  1.0000
  C   C76       1.0  0.35600  0.40800  0.41100  1.0000
  C   C77       1.0  0.98900  0.68500  0.54800  1.0000
  H   H40       1.0  0.92430  0.71970  0.56910  1.0000
  C   C78       1.0  0.09200  0.62300  0.67500  1.0000
  C   C79       1.0  0.51400  0.12100  0.29700  1.0000
  C   C80       1.0  0.43000  0.25800  0.39200  1.0000
  C   C81       1.0  0.35100  0.18200  0.36400  1.0000
  H   H41       1.0  0.25550  0.17640  0.37590  1.0000
  C   C82       1.0  0.38600  0.10700  0.32000  1.0000
  H   H42       1.0  0.32360  0.05120  0.30760  1.0000
  C   C83       1.0  0.28200  0.50400  0.81800  1.0000
  H   H43       1.0  0.31910  0.48880  0.87000  1.0000
  C   C84       1.0  0.20400  0.56900  0.79900  1.0000
  H   H44       1.0  0.17710  0.61170  0.83730  1.0000
  C   C85       1.0  0.39000  0.43500  0.33600  1.0000
  H   H45       1.0  0.43550  0.40260  0.29830  1.0000
  C   C86       1.0  0.34400  0.51200  0.32800  1.0000
  H   H46       1.0  0.35790  0.54620  0.28450  1.0000
  C   C87       1.0  0.62200  0.16300  0.36800  1.0000
  H   H47       1.0  0.70550  0.13610  0.38280  1.0000
  C   C88       1.0  0.57600  0.24600  0.41400  1.0000
  H   H48       1.0  0.63300  0.27950  0.46050  1.0000
  Ni  Ni1       1.0  0.60640  0.99740  0.93390  1.0000
  Ni  Ni2       1.0  0.74830  0.51860  0.43680  1.0000
  Ni  Ni3       1.0  0.39360  0.00260  0.06610  1.0000
  Ni  Ni4       1.0  0.25170  0.48140  0.56320  1.0000
