data_image0
_chemical_formula_structural       OC2HOHC3HC2OCHOCHOCHOCHC2HC3O2N3CHCHN2CHCHNZn3
_chemical_formula_sum              "O8 C20 H12 N6 Zn3"
_cell_length_a       9.2142
_cell_length_b       11.1531
_cell_length_c       11.3582
_cell_angle_alpha    112.294
_cell_angle_beta     99.494
_cell_angle_gamma    99.046

_space_group_name_H-M_alt    "P 1"
_space_group_IT_number       1

loop_
  _space_group_symop_operation_xyz
  'x, y, z'

loop_
  _atom_site_type_symbol
  _atom_site_label
  _atom_site_symmetry_multiplicity
  _atom_site_fract_x
  _atom_site_fract_y
  _atom_site_fract_z
  _atom_site_occupancy
  O   O1        1.0  0.28050  0.59460  0.26570  1.0000
  C   C1        1.0  0.56390  0.45610  0.39490  1.0000
  C   C2        1.0  0.61470  0.43400  0.50520  1.0000
  H   H1        1.0  0.60730  0.42640  0.32390  1.0000
  O   O2        1.0  0.45880  0.50330  0.17520  1.0000
  H   H2        1.0  0.69170  0.38960  0.50810  1.0000
  C   C3        1.0  0.55070  0.47800  0.61020  1.0000
  C   C4        1.0  0.60640  0.45690  0.73280  1.0000
  C   C5        1.0  0.38530  0.56600  0.49480  1.0000
  H   H3        1.0  0.30830  0.61040  0.49190  1.0000
  C   C6        1.0  0.44930  0.52200  0.38980  1.0000
  C   C7        1.0  0.39360  0.54310  0.26720  1.0000
  O   O3        1.0  0.71950  0.40540  0.73430  1.0000
  C   C8        1.0  0.43610  0.54390  0.60510  1.0000
  H   H4        1.0  0.39270  0.57360  0.67610  1.0000
  O   O4        1.0  0.54120  0.49670  0.82480  1.0000
  C   C9        1.0  0.43310  0.10630  0.03140  1.0000
  H   H5        1.0  0.38850  0.17850  0.05350  1.0000
  O   O5        1.0  0.26800  0.77360  0.09490  1.0000
  C   C10       1.0  0.62010  0.00140  0.94290  1.0000
  H   H6        1.0  0.70220  0.00250  0.90500  1.0000
  O   O6        1.0  0.46070  0.69080  0.04290  1.0000
  C   C11       1.0  0.56690  0.89370  0.96860  1.0000
  H   H7        1.0  0.61150  0.82150  0.94650  1.0000
  C   C12       1.0  0.55350  0.10680  0.97260  1.0000
  C   C13       1.0  0.37990  0.99860  0.05710  1.0000
  H   H8        1.0  0.29780  0.99750  0.09500  1.0000
  C   C14       1.0  0.61020  0.22460  0.94230  1.0000
  C   C15       1.0  0.44650  0.89320  0.02740  1.0000
  C   C16       1.0  0.38980  0.77540  0.05770  1.0000
  O   O7        1.0  0.73200  0.22640  0.90510  1.0000
  O   O8        1.0  0.53930  0.30920  0.95710  1.0000
  N   N1        1.0  0.84430  0.55050  0.05370  1.0000
  N   N2        1.0  0.73020  0.59590  0.10100  1.0000
  N   N3        1.0  0.97600  0.63280  0.13860  1.0000
  C   C17       1.0  0.93840  0.72210  0.23530  1.0000
  H   H9        1.0  0.00630  0.78920  0.30980  1.0000
  C   C18       1.0  0.78880  0.70200  0.21060  1.0000
  H   H10       1.0  0.73480  0.75460  0.26250  1.0000
  N   N4        1.0  0.26980  0.40410  0.89900  1.0000
  N   N5        1.0  0.02400  0.36720  0.86140  1.0000
  C   C19       1.0  0.06160  0.27790  0.76470  1.0000
  H   H11       1.0  0.99370  0.21080  0.69020  1.0000
  C   C20       1.0  0.21120  0.29800  0.78940  1.0000
  H   H12       1.0  0.26520  0.24540  0.73750  1.0000
  N   N6        1.0  0.15570  0.44950  0.94630  1.0000
  Zn  Zn1       1.0  0.18384  0.61180  0.11164  1.0000
  Zn  Zn2       1.0  0.81616  0.38820  0.88836  1.0000
  Zn  Zn3       1.0  0.50000  0.50000  0.00000  1.0000
