data_image0
_chemical_formula_structural       O2CHCHC2O2CHCHC2O2CHCHC2O2CHCHC2O2CHCHC2O2CHCHC2O2CHCHC2O2CHCHC2N3CHCHN3CHCHN3CHCHCHN3CHZn6
_chemical_formula_sum              "O16 C40 H24 N12 Zn6"
_cell_length_a       12.1742
_cell_length_b       18.9858
_cell_length_c       9.198
_cell_angle_alpha    90
_cell_angle_beta     108.81
_cell_angle_gamma    90

_space_group_name_H-M_alt    "P 1"
_space_group_IT_number       1

loop_
  _space_group_symop_operation_xyz
  'x, y, z'

loop_
  _atom_site_type_symbol
  _atom_site_label
  _atom_site_symmetry_multiplicity
  _atom_site_fract_x
  _atom_site_fract_y
  _atom_site_fract_z
  _atom_site_occupancy
  O   O1        1.0  0.31199  0.08656  0.21823  1.0000
  O   O2        1.0  0.39177  0.07976  0.03411  1.0000
  C   C1        1.0  0.31550  0.21344  0.92850  1.0000
  H   H1        1.0  0.35980  0.18900  0.87970  1.0000
  C   C2        1.0  0.22480  0.21986  0.12120  1.0000
  H   H2        1.0  0.20750  0.19980  0.20350  1.0000
  C   C3        1.0  0.29029  0.18292  0.04990  1.0000
  C   C4        1.0  0.33518  0.11054  0.10330  1.0000
  O   O3        1.0  0.18801  0.41344  0.78177  1.0000
  O   O4        1.0  0.10823  0.42024  0.96589  1.0000
  C   C5        1.0  0.18450  0.28656  0.07150  1.0000
  H   H3        1.0  0.14020  0.31100  0.12030  1.0000
  C   C6        1.0  0.27520  0.28014  0.87880  1.0000
  H   H4        1.0  0.29250  0.30020  0.79650  1.0000
  C   C7        1.0  0.20971  0.31708  0.95010  1.0000
  C   C8        1.0  0.16482  0.38946  0.89670  1.0000
  O   O5        1.0  0.68801  0.91344  0.78177  1.0000
  O   O6        1.0  0.60823  0.92024  0.96589  1.0000
  C   C9        1.0  0.68450  0.78656  0.07150  1.0000
  H   H5        1.0  0.64020  0.81100  0.12030  1.0000
  C   C10       1.0  0.77520  0.78014  0.87880  1.0000
  H   H6        1.0  0.79250  0.80020  0.79650  1.0000
  C   C11       1.0  0.70971  0.81708  0.95010  1.0000
  C   C12       1.0  0.66482  0.88946  0.89670  1.0000
  O   O7        1.0  0.81199  0.58656  0.21823  1.0000
  O   O8        1.0  0.89177  0.57976  0.03411  1.0000
  C   C13       1.0  0.81550  0.71344  0.92850  1.0000
  H   H7        1.0  0.85980  0.68900  0.87970  1.0000
  C   C14       1.0  0.72480  0.71986  0.12120  1.0000
  H   H8        1.0  0.70750  0.69980  0.20350  1.0000
  C   C15       1.0  0.79029  0.68292  0.04990  1.0000
  C   C16       1.0  0.83518  0.61054  0.10330  1.0000
  O   O9        1.0  0.68801  0.08656  0.78177  1.0000
  O   O10       1.0  0.60823  0.07976  0.96589  1.0000
  C   C17       1.0  0.68450  0.21344  0.07150  1.0000
  H   H9        1.0  0.64020  0.18900  0.12030  1.0000
  C   C18       1.0  0.77520  0.21986  0.87880  1.0000
  H   H10       1.0  0.79250  0.19980  0.79650  1.0000
  C   C19       1.0  0.70971  0.18292  0.95010  1.0000
  C   C20       1.0  0.66482  0.11054  0.89670  1.0000
  O   O11       1.0  0.81199  0.41344  0.21823  1.0000
  O   O12       1.0  0.89177  0.42024  0.03411  1.0000
  C   C21       1.0  0.81550  0.28656  0.92850  1.0000
  H   H11       1.0  0.85980  0.31100  0.87970  1.0000
  C   C22       1.0  0.72480  0.28014  0.12120  1.0000
  H   H12       1.0  0.70750  0.30020  0.20350  1.0000
  C   C23       1.0  0.79029  0.31708  0.04990  1.0000
  C   C24       1.0  0.83518  0.38946  0.10330  1.0000
  O   O13       1.0  0.31199  0.91344  0.21823  1.0000
  O   O14       1.0  0.39177  0.92024  0.03411  1.0000
  C   C25       1.0  0.31550  0.78656  0.92850  1.0000
  H   H13       1.0  0.35980  0.81100  0.87970  1.0000
  C   C26       1.0  0.22480  0.78014  0.12120  1.0000
  H   H14       1.0  0.20750  0.80020  0.20350  1.0000
  C   C27       1.0  0.29029  0.81708  0.04990  1.0000
  C   C28       1.0  0.33518  0.88946  0.10330  1.0000
  O   O15       1.0  0.18801  0.58656  0.78177  1.0000
  O   O16       1.0  0.10823  0.57976  0.96589  1.0000
  C   C29       1.0  0.18450  0.71344  0.07150  1.0000
  H   H15       1.0  0.14020  0.68900  0.12030  1.0000
  C   C30       1.0  0.27520  0.71986  0.87880  1.0000
  H   H16       1.0  0.29250  0.69980  0.79650  1.0000
  C   C31       1.0  0.20971  0.68292  0.95010  1.0000
  C   C32       1.0  0.16482  0.61054  0.89670  1.0000
  N   N1        1.0  0.55573  0.00000  0.34670  1.0000
  N   N2        1.0  0.63920  0.00000  0.48100  1.0000
  N   N3        1.0  0.60010  0.00000  0.23330  1.0000
  C   C33       1.0  0.73920  0.00000  0.45160  1.0000
  H   H17       1.0  0.81280  0.00000  0.52440  1.0000
  C   C34       1.0  0.71550  0.00000  0.29790  1.0000
  H   H18       1.0  0.76970  0.00000  0.24620  1.0000
  N   N4        1.0  0.05573  0.50000  0.34670  1.0000
  N   N5        1.0  0.13920  0.50000  0.48100  1.0000
  N   N6        1.0  0.10010  0.50000  0.23330  1.0000
  C   C35       1.0  0.23920  0.50000  0.45160  1.0000
  H   H19       1.0  0.31280  0.50000  0.52440  1.0000
  C   C36       1.0  0.21550  0.50000  0.29790  1.0000
  H   H20       1.0  0.26970  0.50000  0.24620  1.0000
  N   N7        1.0  0.44427  0.00000  0.65330  1.0000
  N   N8        1.0  0.36080  0.00000  0.51900  1.0000
  N   N9        1.0  0.39990  0.00000  0.76670  1.0000
  C   C37       1.0  0.26080  0.00000  0.54840  1.0000
  H   H21       1.0  0.18720  0.00000  0.47560  1.0000
  C   C38       1.0  0.28450  0.00000  0.70210  1.0000
  H   H22       1.0  0.23030  0.00000  0.75380  1.0000
  C   C39       1.0  0.78450  0.50000  0.70210  1.0000
  H   H23       1.0  0.73030  0.50000  0.75380  1.0000
  N   N10       1.0  0.94427  0.50000  0.65330  1.0000
  N   N11       1.0  0.86080  0.50000  0.51900  1.0000
  N   N12       1.0  0.89990  0.50000  0.76670  1.0000
  C   C40       1.0  0.76080  0.50000  0.54840  1.0000
  H   H24       1.0  0.68720  0.50000  0.47560  1.0000
  Zn  Zn1       1.0  0.50000  0.00000  0.00000  1.0000
  Zn  Zn2       1.0  0.00000  0.50000  0.00000  1.0000
  Zn  Zn3       1.0  0.38367  0.00000  0.31148  1.0000
  Zn  Zn4       1.0  0.61633  0.00000  0.68852  1.0000
  Zn  Zn5       1.0  0.11633  0.50000  0.68852  1.0000
  Zn  Zn6       1.0  0.88367  0.50000  0.31148  1.0000
