data_image0
_chemical_formula_structural       O2C2HC2HC3HSO5C2HC2HC3HSO5C2HC2HC3HSO5C2HC2HC3HSO5C2HC2HC3HSO5C2HC2HC3HSO5C2HC2HC3HSO5C2HC2HC3HSO5C2HC2HC3HSO5C2HC2HC3HSO5C2HC2HC3HSO5C2HC2HC3HSO5C2HC2HC3HSO5C2HC2HC3HSO5C2HC2HC3HSO5C2HC2HC3HSO3Zr12O16
_chemical_formula_sum              "O96 C112 H48 S16 Zr12"
_cell_length_a       22.752
_cell_length_b       22.752
_cell_length_c       19.1914
_cell_angle_alpha    90
_cell_angle_beta     90
_cell_angle_gamma    90

_space_group_name_H-M_alt    "P 1"
_space_group_IT_number       1

loop_
  _space_group_symop_operation_xyz
  'x, y, z'

loop_
  _atom_site_type_symbol
  _atom_site_label
  _atom_site_symmetry_multiplicity
  _atom_site_fract_x
  _atom_site_fract_y
  _atom_site_fract_z
  _atom_site_occupancy
  O   O1        1.0  0.55920  0.15820  0.56990  1.0000
  O   O2        1.0  0.60930  0.08780  0.62730  1.0000
  C   C1        1.0  0.59770  0.13810  0.61400  1.0000
  C   C2        1.0  0.66280  0.16950  0.71060  1.0000
  H   H1        1.0  0.66520  0.13010  0.72330  1.0000
  C   C3        1.0  0.62890  0.18600  0.65360  1.0000
  C   C4        1.0  0.62530  0.24480  0.63460  1.0000
  H   H2        1.0  0.60260  0.25590  0.59640  1.0000
  C   C5        1.0  0.65550  0.28710  0.67250  1.0000
  C   C6        1.0  0.68940  0.27060  0.72950  1.0000
  C   C7        1.0  0.69300  0.21180  0.74860  1.0000
  H   H3        1.0  0.71570  0.20070  0.78670  1.0000
  S   S1        1.0  0.64070  0.36340  0.63870  1.0000
  O   O3        1.0  0.69270  0.37860  0.64670  1.0000
  O   O4        1.0  0.61360  0.37420  0.69570  1.0000
  O   O5        1.0  0.61670  0.34580  0.58260  1.0000
  O   O6        1.0  0.84180  0.44080  0.93010  1.0000
  O   O7        1.0  0.91220  0.39070  0.87270  1.0000
  C   C8        1.0  0.86190  0.40230  0.88600  1.0000
  C   C9        1.0  0.83050  0.33720  0.78940  1.0000
  H   H4        1.0  0.86990  0.33480  0.77670  1.0000
  C   C10       1.0  0.81400  0.37110  0.84640  1.0000
  C   C11       1.0  0.75520  0.37470  0.86540  1.0000
  H   H5        1.0  0.74410  0.39740  0.90360  1.0000
  C   C12       1.0  0.71290  0.34450  0.82750  1.0000
  C   C13       1.0  0.72940  0.31060  0.77050  1.0000
  C   C14       1.0  0.78820  0.30700  0.75140  1.0000
  H   H6        1.0  0.79930  0.28430  0.71330  1.0000
  S   S2        1.0  0.63660  0.35930  0.86130  1.0000
  O   O8        1.0  0.62140  0.30730  0.85330  1.0000
  O   O9        1.0  0.62580  0.38640  0.80430  1.0000
  O   O10       1.0  0.65420  0.38330  0.91740  1.0000
  O   O11       1.0  0.44080  0.84180  0.56990  1.0000
  O   O12       1.0  0.39070  0.91220  0.62730  1.0000
  C   C15       1.0  0.40230  0.86190  0.61400  1.0000
  C   C16       1.0  0.33720  0.83050  0.71060  1.0000
  H   H7        1.0  0.33480  0.86990  0.72330  1.0000
  C   C17       1.0  0.37110  0.81400  0.65360  1.0000
  C   C18       1.0  0.37470  0.75520  0.63460  1.0000
  H   H8        1.0  0.39740  0.74410  0.59640  1.0000
  C   C19       1.0  0.34450  0.71290  0.67250  1.0000
  C   C20       1.0  0.31060  0.72940  0.72950  1.0000
  C   C21       1.0  0.30700  0.78820  0.74860  1.0000
  H   H9        1.0  0.28430  0.79930  0.78670  1.0000
  S   S3        1.0  0.35930  0.63660  0.63870  1.0000
  O   O13       1.0  0.30730  0.62140  0.64670  1.0000
  O   O14       1.0  0.38640  0.62580  0.69570  1.0000
  O   O15       1.0  0.38330  0.65420  0.58260  1.0000
  O   O16       1.0  0.15820  0.55920  0.93010  1.0000
  O   O17       1.0  0.08780  0.60930  0.87270  1.0000
  C   C22       1.0  0.13810  0.59770  0.88600  1.0000
  C   C23       1.0  0.16950  0.66280  0.78940  1.0000
  H   H10       1.0  0.13010  0.66520  0.77670  1.0000
  C   C24       1.0  0.18600  0.62890  0.84640  1.0000
  C   C25       1.0  0.24480  0.62530  0.86540  1.0000
  H   H11       1.0  0.25590  0.60260  0.90360  1.0000
  C   C26       1.0  0.28710  0.65550  0.82750  1.0000
  C   C27       1.0  0.27060  0.68940  0.77050  1.0000
  C   C28       1.0  0.21180  0.69300  0.75140  1.0000
  H   H12       1.0  0.20070  0.71570  0.71330  1.0000
  S   S4        1.0  0.36340  0.64070  0.86130  1.0000
  O   O18       1.0  0.37860  0.69270  0.85330  1.0000
  O   O19       1.0  0.37420  0.61360  0.80430  1.0000
  O   O20       1.0  0.34580  0.61670  0.91740  1.0000
  O   O21       1.0  0.84180  0.55920  0.06990  1.0000
  O   O22       1.0  0.91220  0.60930  0.12730  1.0000
  C   C29       1.0  0.86190  0.59770  0.11400  1.0000
  C   C30       1.0  0.83050  0.66280  0.21060  1.0000
  H   H13       1.0  0.86990  0.66520  0.22330  1.0000
  C   C31       1.0  0.81400  0.62890  0.15360  1.0000
  C   C32       1.0  0.75520  0.62530  0.13460  1.0000
  H   H14       1.0  0.74410  0.60260  0.09640  1.0000
  C   C33       1.0  0.71290  0.65550  0.17250  1.0000
  C   C34       1.0  0.72940  0.68940  0.22950  1.0000
  C   C35       1.0  0.78820  0.69300  0.24860  1.0000
  H   H15       1.0  0.79930  0.71570  0.28670  1.0000
  S   S5        1.0  0.63660  0.64070  0.13870  1.0000
  O   O23       1.0  0.62140  0.69270  0.14670  1.0000
  O   O24       1.0  0.62580  0.61360  0.19570  1.0000
  O   O25       1.0  0.65420  0.61670  0.08260  1.0000
  O   O26       1.0  0.55920  0.84180  0.43010  1.0000
  O   O27       1.0  0.60930  0.91220  0.37270  1.0000
  C   C36       1.0  0.59770  0.86190  0.38600  1.0000
  C   C37       1.0  0.66280  0.83050  0.28940  1.0000
  H   H16       1.0  0.66520  0.86990  0.27670  1.0000
  C   C38       1.0  0.62890  0.81400  0.34640  1.0000
  C   C39       1.0  0.62530  0.75520  0.36540  1.0000
  H   H17       1.0  0.60260  0.74410  0.40360  1.0000
  C   C40       1.0  0.65550  0.71290  0.32750  1.0000
  C   C41       1.0  0.68940  0.72940  0.27050  1.0000
  C   C42       1.0  0.69300  0.78820  0.25140  1.0000
  H   H18       1.0  0.71570  0.79930  0.21330  1.0000
  S   S6        1.0  0.64070  0.63660  0.36130  1.0000
  O   O28       1.0  0.69270  0.62140  0.35330  1.0000
  O   O29       1.0  0.61360  0.62580  0.30430  1.0000
  O   O30       1.0  0.61670  0.65420  0.41740  1.0000
  O   O31       1.0  0.15820  0.44080  0.06990  1.0000
  O   O32       1.0  0.08780  0.39070  0.12730  1.0000
  C   C43       1.0  0.13810  0.40230  0.11400  1.0000
  C   C44       1.0  0.16950  0.33720  0.21060  1.0000
  H   H19       1.0  0.13010  0.33480  0.22330  1.0000
  C   C45       1.0  0.18600  0.37110  0.15360  1.0000
  C   C46       1.0  0.24480  0.37470  0.13460  1.0000
  H   H20       1.0  0.25590  0.39740  0.09640  1.0000
  C   C47       1.0  0.28710  0.34450  0.17250  1.0000
  C   C48       1.0  0.27060  0.31060  0.22950  1.0000
  C   C49       1.0  0.21180  0.30700  0.24860  1.0000
  H   H21       1.0  0.20070  0.28430  0.28670  1.0000
  S   S7        1.0  0.36340  0.35930  0.13870  1.0000
  O   O33       1.0  0.37860  0.30730  0.14670  1.0000
  O   O34       1.0  0.37420  0.38640  0.19570  1.0000
  O   O35       1.0  0.34580  0.38330  0.08260  1.0000
  O   O36       1.0  0.44080  0.15820  0.43010  1.0000
  O   O37       1.0  0.39070  0.08780  0.37270  1.0000
  C   C50       1.0  0.40230  0.13810  0.38600  1.0000
  C   C51       1.0  0.33720  0.16950  0.28940  1.0000
  H   H22       1.0  0.33480  0.13010  0.27670  1.0000
  C   C52       1.0  0.37110  0.18600  0.34640  1.0000
  C   C53       1.0  0.37470  0.24480  0.36540  1.0000
  H   H23       1.0  0.39740  0.25590  0.40360  1.0000
  C   C54       1.0  0.34450  0.28710  0.32750  1.0000
  C   C55       1.0  0.31060  0.27060  0.27050  1.0000
  C   C56       1.0  0.30700  0.21180  0.25140  1.0000
  H   H24       1.0  0.28430  0.20070  0.21330  1.0000
  S   S8        1.0  0.35930  0.36340  0.36130  1.0000
  O   O38       1.0  0.30730  0.37860  0.35330  1.0000
  O   O39       1.0  0.38640  0.37420  0.30430  1.0000
  O   O40       1.0  0.38330  0.34580  0.41740  1.0000
  O   O41       1.0  0.44080  0.84180  0.43010  1.0000
  O   O42       1.0  0.39070  0.91220  0.37270  1.0000
  C   C57       1.0  0.40230  0.86190  0.38600  1.0000
  C   C58       1.0  0.33720  0.83050  0.28940  1.0000
  H   H25       1.0  0.33480  0.86990  0.27670  1.0000
  C   C59       1.0  0.37110  0.81400  0.34640  1.0000
  C   C60       1.0  0.37470  0.75520  0.36540  1.0000
  H   H26       1.0  0.39740  0.74410  0.40360  1.0000
  C   C61       1.0  0.34450  0.71290  0.32750  1.0000
  C   C62       1.0  0.31060  0.72940  0.27050  1.0000
  C   C63       1.0  0.30700  0.78820  0.25140  1.0000
  H   H27       1.0  0.28430  0.79930  0.21330  1.0000
  S   S9        1.0  0.35930  0.63660  0.36130  1.0000
  O   O43       1.0  0.30730  0.62140  0.35330  1.0000
  O   O44       1.0  0.38640  0.62580  0.30430  1.0000
  O   O45       1.0  0.38330  0.65420  0.41740  1.0000
  O   O46       1.0  0.15820  0.55920  0.06990  1.0000
  O   O47       1.0  0.08780  0.60930  0.12730  1.0000
  C   C64       1.0  0.13810  0.59770  0.11400  1.0000
  C   C65       1.0  0.16950  0.66280  0.21060  1.0000
  H   H28       1.0  0.13010  0.66520  0.22330  1.0000
  C   C66       1.0  0.18600  0.62890  0.15360  1.0000
  C   C67       1.0  0.24480  0.62530  0.13460  1.0000
  H   H29       1.0  0.25590  0.60260  0.09640  1.0000
  C   C68       1.0  0.28710  0.65550  0.17250  1.0000
  C   C69       1.0  0.27060  0.68940  0.22950  1.0000
  C   C70       1.0  0.21180  0.69300  0.24860  1.0000
  H   H30       1.0  0.20070  0.71570  0.28670  1.0000
  S   S10       1.0  0.36340  0.64070  0.13870  1.0000
  O   O48       1.0  0.37860  0.69270  0.14670  1.0000
  O   O49       1.0  0.37420  0.61360  0.19570  1.0000
  O   O50       1.0  0.34580  0.61670  0.08260  1.0000
  O   O51       1.0  0.55920  0.15820  0.43010  1.0000
  O   O52       1.0  0.60930  0.08780  0.37270  1.0000
  C   C71       1.0  0.59770  0.13810  0.38600  1.0000
  C   C72       1.0  0.66280  0.16950  0.28940  1.0000
  H   H31       1.0  0.66520  0.13010  0.27670  1.0000
  C   C73       1.0  0.62890  0.18600  0.34640  1.0000
  C   C74       1.0  0.62530  0.24480  0.36540  1.0000
  H   H32       1.0  0.60260  0.25590  0.40360  1.0000
  C   C75       1.0  0.65550  0.28710  0.32750  1.0000
  C   C76       1.0  0.68940  0.27060  0.27050  1.0000
  C   C77       1.0  0.69300  0.21180  0.25140  1.0000
  H   H33       1.0  0.71570  0.20070  0.21330  1.0000
  S   S11       1.0  0.64070  0.36340  0.36130  1.0000
  O   O53       1.0  0.69270  0.37860  0.35330  1.0000
  O   O54       1.0  0.61360  0.37420  0.30430  1.0000
  O   O55       1.0  0.61670  0.34580  0.41740  1.0000
  O   O56       1.0  0.84180  0.44080  0.06990  1.0000
  O   O57       1.0  0.91220  0.39070  0.12730  1.0000
  C   C78       1.0  0.86190  0.40230  0.11400  1.0000
  C   C79       1.0  0.83050  0.33720  0.21060  1.0000
  H   H34       1.0  0.86990  0.33480  0.22330  1.0000
  C   C80       1.0  0.81400  0.37110  0.15360  1.0000
  C   C81       1.0  0.75520  0.37470  0.13460  1.0000
  H   H35       1.0  0.74410  0.39740  0.09640  1.0000
  C   C82       1.0  0.71290  0.34450  0.17250  1.0000
  C   C83       1.0  0.72940  0.31060  0.22950  1.0000
  C   C84       1.0  0.78820  0.30700  0.24860  1.0000
  H   H36       1.0  0.79930  0.28430  0.28670  1.0000
  S   S12       1.0  0.63660  0.35930  0.13870  1.0000
  O   O58       1.0  0.62140  0.30730  0.14670  1.0000
  O   O59       1.0  0.62580  0.38640  0.19570  1.0000
  O   O60       1.0  0.65420  0.38330  0.08260  1.0000
  O   O61       1.0  0.15820  0.44080  0.93010  1.0000
  O   O62       1.0  0.08780  0.39070  0.87270  1.0000
  C   C85       1.0  0.13810  0.40230  0.88600  1.0000
  C   C86       1.0  0.16950  0.33720  0.78940  1.0000
  H   H37       1.0  0.13010  0.33480  0.77670  1.0000
  C   C87       1.0  0.18600  0.37110  0.84640  1.0000
  C   C88       1.0  0.24480  0.37470  0.86540  1.0000
  H   H38       1.0  0.25590  0.39740  0.90360  1.0000
  C   C89       1.0  0.28710  0.34450  0.82750  1.0000
  C   C90       1.0  0.27060  0.31060  0.77050  1.0000
  C   C91       1.0  0.21180  0.30700  0.75140  1.0000
  H   H39       1.0  0.20070  0.28430  0.71330  1.0000
  S   S13       1.0  0.36340  0.35930  0.86130  1.0000
  O   O63       1.0  0.37860  0.30730  0.85330  1.0000
  O   O64       1.0  0.37420  0.38640  0.80430  1.0000
  O   O65       1.0  0.34580  0.38330  0.91740  1.0000
  O   O66       1.0  0.44080  0.15820  0.56990  1.0000
  O   O67       1.0  0.39070  0.08780  0.62730  1.0000
  C   C92       1.0  0.40230  0.13810  0.61400  1.0000
  C   C93       1.0  0.33720  0.16950  0.71060  1.0000
  H   H40       1.0  0.33480  0.13010  0.72330  1.0000
  C   C94       1.0  0.37110  0.18600  0.65360  1.0000
  C   C95       1.0  0.37470  0.24480  0.63460  1.0000
  H   H41       1.0  0.39740  0.25590  0.59640  1.0000
  C   C96       1.0  0.34450  0.28710  0.67250  1.0000
  C   C97       1.0  0.31060  0.27060  0.72950  1.0000
  C   C98       1.0  0.30700  0.21180  0.74860  1.0000
  H   H42       1.0  0.28430  0.20070  0.78670  1.0000
  S   S14       1.0  0.35930  0.36340  0.63870  1.0000
  O   O68       1.0  0.30730  0.37860  0.64670  1.0000
  O   O69       1.0  0.38640  0.37420  0.69570  1.0000
  O   O70       1.0  0.38330  0.34580  0.58260  1.0000
  O   O71       1.0  0.84180  0.55920  0.93010  1.0000
  O   O72       1.0  0.91220  0.60930  0.87270  1.0000
  C   C99       1.0  0.86190  0.59770  0.88600  1.0000
  C   C100      1.0  0.83050  0.66280  0.78940  1.0000
  H   H43       1.0  0.86990  0.66520  0.77670  1.0000
  C   C101      1.0  0.81400  0.62890  0.84640  1.0000
  C   C102      1.0  0.75520  0.62530  0.86540  1.0000
  H   H44       1.0  0.74410  0.60260  0.90360  1.0000
  C   C103      1.0  0.71290  0.65550  0.82750  1.0000
  C   C104      1.0  0.72940  0.68940  0.77050  1.0000
  C   C105      1.0  0.78820  0.69300  0.75140  1.0000
  H   H45       1.0  0.79930  0.71570  0.71330  1.0000
  S   S15       1.0  0.63660  0.64070  0.86130  1.0000
  O   O73       1.0  0.62140  0.69270  0.85330  1.0000
  O   O74       1.0  0.62580  0.61360  0.80430  1.0000
  O   O75       1.0  0.65420  0.61670  0.91740  1.0000
  O   O76       1.0  0.55920  0.84180  0.56990  1.0000
  O   O77       1.0  0.60930  0.91220  0.62730  1.0000
  C   C106      1.0  0.59770  0.86190  0.61400  1.0000
  C   C107      1.0  0.66280  0.83050  0.71060  1.0000
  H   H46       1.0  0.66520  0.86990  0.72330  1.0000
  C   C108      1.0  0.62890  0.81400  0.65360  1.0000
  C   C109      1.0  0.62530  0.75520  0.63460  1.0000
  H   H47       1.0  0.60260  0.74410  0.59640  1.0000
  C   C110      1.0  0.65550  0.71290  0.67250  1.0000
  C   C111      1.0  0.68940  0.72940  0.72950  1.0000
  C   C112      1.0  0.69300  0.78820  0.74860  1.0000
  H   H48       1.0  0.71570  0.79930  0.78670  1.0000
  S   S16       1.0  0.64070  0.63660  0.63870  1.0000
  O   O78       1.0  0.69270  0.62140  0.64670  1.0000
  O   O79       1.0  0.61360  0.62580  0.69570  1.0000
  O   O80       1.0  0.61670  0.65420  0.58260  1.0000
  Zr  Zr1       1.0  0.50000  0.10807  0.50000  1.0000
  Zr  Zr2       1.0  0.50000  0.89193  0.50000  1.0000
  Zr  Zr3       1.0  0.89193  0.50000  0.00000  1.0000
  Zr  Zr4       1.0  0.10807  0.50000  0.00000  1.0000
  Zr  Zr5       1.0  0.42299  0.00000  0.59183  1.0000
  Zr  Zr6       1.0  0.57701  0.00000  0.59183  1.0000
  Zr  Zr7       1.0  0.00000  0.42299  0.09183  1.0000
  Zr  Zr8       1.0  0.00000  0.57701  0.09183  1.0000
  Zr  Zr9       1.0  0.57701  0.00000  0.40817  1.0000
  Zr  Zr10      1.0  0.42299  0.00000  0.40817  1.0000
  Zr  Zr11      1.0  0.00000  0.42299  0.90817  1.0000
  Zr  Zr12      1.0  0.00000  0.57701  0.90817  1.0000
  O   O81       1.0  0.50000  0.05200  0.59120  1.0000
  O   O82       1.0  0.50000  0.94800  0.59120  1.0000
  O   O83       1.0  0.94800  0.50000  0.09120  1.0000
  O   O84       1.0  0.05200  0.50000  0.09120  1.0000
  O   O85       1.0  0.50000  0.05200  0.40880  1.0000
  O   O86       1.0  0.50000  0.94800  0.40880  1.0000
  O   O87       1.0  0.05200  0.50000  0.90880  1.0000
  O   O88       1.0  0.94800  0.50000  0.90880  1.0000
  O   O89       1.0  0.42110  0.05480  0.50000  1.0000
  O   O90       1.0  0.57890  0.94520  0.50000  1.0000
  O   O91       1.0  0.94520  0.42110  0.00000  1.0000
  O   O92       1.0  0.05480  0.57890  0.00000  1.0000
  O   O93       1.0  0.57890  0.05480  0.50000  1.0000
  O   O94       1.0  0.42110  0.94520  0.50000  1.0000
  O   O95       1.0  0.05480  0.42110  0.00000  1.0000
  O   O96       1.0  0.94520  0.57890  0.00000  1.0000
