data_image0
_chemical_formula_structural       PO3C3HC2HCH2O2POPOPO3C3H2C3H2O3CO2PO3C3H2C2H2PC2H2C3H2O3P2O3CSm4PO3C3HC2HCH2O2POPOPO3C3H2C3H2O3CO2PO3C3H2C2H2PC2H2C3H2O3P2O3CSm4
_chemical_formula_sum              "P16 O48 C48 H32 Sm8"
_cell_length_a       11.0674
_cell_length_b       20.0091
_cell_length_c       8.2016
_cell_angle_alpha    90
_cell_angle_beta     108.457
_cell_angle_gamma    90

_space_group_name_H-M_alt    "P 1"
_space_group_IT_number       1

loop_
  _space_group_symop_operation_xyz
  'x, y, z'

loop_
  _atom_site_type_symbol
  _atom_site_label
  _atom_site_symmetry_multiplicity
  _atom_site_fract_x
  _atom_site_fract_y
  _atom_site_fract_z
  _atom_site_occupancy
  P   P1        1.0  0.29122  0.16097  0.95014  1.0000
  O   O1        1.0  0.35324  0.16795  0.17049  1.0000
  O   O2        1.0  0.44039  0.16273  0.91276  1.0000
  O   O3        1.0  0.21638  0.23922  0.94880  1.0000
  C   C1        1.0  0.34074  0.02289  0.93050  1.0000
  C   C2        1.0  0.16896  0.04608  0.04271  1.0000
  C   C3        1.0  0.25867  0.06987  0.97013  1.0000
  H   H1        1.0  0.41046  0.03932  0.87230  1.0000
  C   C4        1.0  0.15926  0.97711  0.06950  1.0000
  C   C5        1.0  0.33103  0.95392  0.95729  1.0000
  H   H2        1.0  0.10886  0.08050  0.08274  1.0000
  C   C6        1.0  0.24133  0.93013  0.02987  1.0000
  H   H3        1.0  0.39114  0.91950  0.91726  1.0000
  H   H4        1.0  0.08954  0.96068  0.12770  1.0000
  O   O4        1.0  0.14675  0.83205  0.82951  1.0000
  O   O5        1.0  0.28362  0.76078  0.05120  1.0000
  P   P2        1.0  0.20878  0.83903  0.04986  1.0000
  O   O6        1.0  0.05960  0.83727  0.08724  1.0000
  P   P3        1.0  0.45878  0.33903  0.04986  1.0000
  O   O7        1.0  0.39676  0.33205  0.82951  1.0000
  P   P4        1.0  0.04122  0.66097  0.95014  1.0000
  O   O8        1.0  0.10324  0.66795  0.17049  1.0000
  O   O9        1.0  0.19039  0.66273  0.91276  1.0000
  O   O10       1.0  0.46638  0.73922  0.94880  1.0000
  C   C7        1.0  0.09074  0.52289  0.93050  1.0000
  C   C8        1.0  0.41896  0.54608  0.04271  1.0000
  C   C9        1.0  0.00867  0.56987  0.97013  1.0000
  H   H5        1.0  0.16045  0.53932  0.87230  1.0000
  H   H6        1.0  0.35886  0.58050  0.08274  1.0000
  C   C10       1.0  0.08103  0.45392  0.95729  1.0000
  C   C11       1.0  0.40926  0.47711  0.06950  1.0000
  C   C12       1.0  0.49132  0.43013  0.02987  1.0000
  H   H7        1.0  0.14114  0.41950  0.91726  1.0000
  H   H8        1.0  0.33954  0.46068  0.12770  1.0000
  O   O11       1.0  0.30960  0.33727  0.08724  1.0000
  O   O12       1.0  0.03362  0.26078  0.05120  1.0000
  O   O13       1.0  0.44039  0.83727  0.41276  1.0000
  C   C13       1.0  0.34074  0.97711  0.43050  1.0000
  O   O14       1.0  0.35324  0.83205  0.67049  1.0000
  O   O15       1.0  0.21638  0.76078  0.44880  1.0000
  P   P5        1.0  0.20878  0.16097  0.54986  1.0000
  O   O16       1.0  0.14675  0.16795  0.32951  1.0000
  O   O17       1.0  0.05960  0.16273  0.58724  1.0000
  O   O18       1.0  0.28362  0.23922  0.55120  1.0000
  C   C14       1.0  0.15926  0.02289  0.56950  1.0000
  C   C15       1.0  0.33103  0.04608  0.45729  1.0000
  C   C16       1.0  0.24133  0.06987  0.52987  1.0000
  H   H9        1.0  0.08954  0.03932  0.62770  1.0000
  H   H10       1.0  0.39114  0.08050  0.41726  1.0000
  C   C17       1.0  0.16896  0.95392  0.54271  1.0000
  C   C18       1.0  0.25867  0.93013  0.47013  1.0000
  H   H11       1.0  0.41046  0.96068  0.37230  1.0000
  H   H12       1.0  0.10886  0.91950  0.58274  1.0000
  P   P6        1.0  0.29122  0.83903  0.45014  1.0000
  C   C19       1.0  0.08103  0.54608  0.45729  1.0000
  C   C20       1.0  0.49132  0.56987  0.52987  1.0000
  H   H13       1.0  0.33954  0.53932  0.62770  1.0000
  H   H14       1.0  0.14114  0.58050  0.41726  1.0000
  C   C21       1.0  0.41896  0.45392  0.54271  1.0000
  C   C22       1.0  0.09074  0.47711  0.43050  1.0000
  C   C23       1.0  0.00867  0.43013  0.47013  1.0000
  H   H15       1.0  0.35886  0.41950  0.58274  1.0000
  H   H16       1.0  0.16045  0.46068  0.37230  1.0000
  O   O19       1.0  0.46638  0.26078  0.44880  1.0000
  O   O20       1.0  0.19040  0.33727  0.41276  1.0000
  O   O21       1.0  0.10324  0.33205  0.67049  1.0000
  P   P7        1.0  0.04122  0.33903  0.45014  1.0000
  P   P8        1.0  0.45878  0.66097  0.54986  1.0000
  O   O22       1.0  0.39676  0.66795  0.32951  1.0000
  O   O23       1.0  0.30961  0.66273  0.58724  1.0000
  O   O24       1.0  0.03362  0.73922  0.55120  1.0000
  C   C24       1.0  0.40926  0.52289  0.56950  1.0000
  Sm  Sm1       1.0  0.25000  0.25650  0.25000  1.0000
  Sm  Sm2       1.0  0.50000  0.75650  0.25000  1.0000
  Sm  Sm3       1.0  0.25000  0.74350  0.75000  1.0000
  Sm  Sm4       1.0  0.00000  0.24350  0.75000  1.0000
  P   P9        1.0  0.79122  0.16097  0.95014  1.0000
  O   O25       1.0  0.85324  0.16795  0.17049  1.0000
  O   O26       1.0  0.94039  0.16273  0.91276  1.0000
  O   O27       1.0  0.71638  0.23922  0.94880  1.0000
  C   C25       1.0  0.84074  0.02289  0.93050  1.0000
  C   C26       1.0  0.66896  0.04608  0.04271  1.0000
  C   C27       1.0  0.75867  0.06987  0.97013  1.0000
  H   H17       1.0  0.91046  0.03932  0.87230  1.0000
  C   C28       1.0  0.65926  0.97711  0.06950  1.0000
  C   C29       1.0  0.83103  0.95392  0.95729  1.0000
  H   H18       1.0  0.60886  0.08050  0.08274  1.0000
  C   C30       1.0  0.74132  0.93013  0.02987  1.0000
  H   H19       1.0  0.89114  0.91950  0.91726  1.0000
  H   H20       1.0  0.58954  0.96068  0.12770  1.0000
  O   O28       1.0  0.64675  0.83205  0.82951  1.0000
  O   O29       1.0  0.78362  0.76078  0.05120  1.0000
  P   P10       1.0  0.70878  0.83903  0.04986  1.0000
  O   O30       1.0  0.55960  0.83727  0.08724  1.0000
  P   P11       1.0  0.95878  0.33903  0.04986  1.0000
  O   O31       1.0  0.89675  0.33205  0.82951  1.0000
  P   P12       1.0  0.54122  0.66097  0.95014  1.0000
  O   O32       1.0  0.60324  0.66795  0.17049  1.0000
  O   O33       1.0  0.69039  0.66273  0.91276  1.0000
  O   O34       1.0  0.96638  0.73922  0.94880  1.0000
  C   C31       1.0  0.59074  0.52289  0.93050  1.0000
  C   C32       1.0  0.91897  0.54608  0.04271  1.0000
  C   C33       1.0  0.50867  0.56987  0.97013  1.0000
  H   H21       1.0  0.66045  0.53932  0.87230  1.0000
  H   H22       1.0  0.85886  0.58050  0.08274  1.0000
  C   C34       1.0  0.58103  0.45392  0.95729  1.0000
  C   C35       1.0  0.90926  0.47711  0.06950  1.0000
  C   C36       1.0  0.99132  0.43013  0.02987  1.0000
  H   H23       1.0  0.64114  0.41950  0.91726  1.0000
  H   H24       1.0  0.83954  0.46068  0.12770  1.0000
  O   O35       1.0  0.80960  0.33727  0.08724  1.0000
  O   O36       1.0  0.53362  0.26078  0.05120  1.0000
  O   O37       1.0  0.94039  0.83727  0.41276  1.0000
  C   C37       1.0  0.84074  0.97711  0.43050  1.0000
  O   O38       1.0  0.85324  0.83205  0.67049  1.0000
  O   O39       1.0  0.71638  0.76078  0.44880  1.0000
  P   P13       1.0  0.70878  0.16097  0.54986  1.0000
  O   O40       1.0  0.64675  0.16795  0.32951  1.0000
  O   O41       1.0  0.55960  0.16273  0.58724  1.0000
  O   O42       1.0  0.78362  0.23922  0.55120  1.0000
  C   C38       1.0  0.65926  0.02289  0.56950  1.0000
  C   C39       1.0  0.83103  0.04608  0.45729  1.0000
  C   C40       1.0  0.74133  0.06987  0.52987  1.0000
  H   H25       1.0  0.58954  0.03932  0.62770  1.0000
  H   H26       1.0  0.89114  0.08050  0.41726  1.0000
  C   C41       1.0  0.66896  0.95392  0.54271  1.0000
  C   C42       1.0  0.75867  0.93013  0.47013  1.0000
  H   H27       1.0  0.91046  0.96068  0.37230  1.0000
  H   H28       1.0  0.60886  0.91950  0.58274  1.0000
  P   P14       1.0  0.79122  0.83903  0.45014  1.0000
  C   C43       1.0  0.58103  0.54608  0.45729  1.0000
  C   C44       1.0  0.99133  0.56987  0.52987  1.0000
  H   H29       1.0  0.83954  0.53932  0.62770  1.0000
  H   H30       1.0  0.64114  0.58050  0.41726  1.0000
  C   C45       1.0  0.91896  0.45392  0.54271  1.0000
  C   C46       1.0  0.59074  0.47711  0.43050  1.0000
  C   C47       1.0  0.50867  0.43013  0.47013  1.0000
  H   H31       1.0  0.85886  0.41950  0.58274  1.0000
  H   H32       1.0  0.66045  0.46068  0.37230  1.0000
  O   O43       1.0  0.96638  0.26078  0.44880  1.0000
  O   O44       1.0  0.69039  0.33727  0.41276  1.0000
  O   O45       1.0  0.60324  0.33205  0.67049  1.0000
  P   P15       1.0  0.54122  0.33903  0.45014  1.0000
  P   P16       1.0  0.95878  0.66097  0.54986  1.0000
  O   O46       1.0  0.89675  0.66795  0.32951  1.0000
  O   O47       1.0  0.80960  0.66273  0.58724  1.0000
  O   O48       1.0  0.53362  0.73922  0.55120  1.0000
  C   C48       1.0  0.90926  0.52289  0.56950  1.0000
  Sm  Sm5       1.0  0.75000  0.25650  0.25000  1.0000
  Sm  Sm6       1.0  1.00000  0.75650  0.25000  1.0000
  Sm  Sm7       1.0  0.75000  0.74350  0.75000  1.0000
  Sm  Sm8       1.0  0.50000  0.24350  0.75000  1.0000
