data_image0
_chemical_formula_structural       PO3C3HC2HCH2O2POPOPO3C3H2C3H2O3CO2PO3C3H2C2H2PC2H2C3H2O3P2O3CNd4PO3C3HC2HCH2O2POPOPO3C3H2C3H2O3CO2PO3C3H2C2H2PC2H2C3H2O3P2O3CNd4
_chemical_formula_sum              "P16 O48 C48 H32 Nd8"
_cell_length_a       11.1348
_cell_length_b       20.0811
_cell_length_c       8.2694
_cell_angle_alpha    90
_cell_angle_beta     108.498
_cell_angle_gamma    90

_space_group_name_H-M_alt    "P 1"
_space_group_IT_number       1

loop_
  _space_group_symop_operation_xyz
  'x, y, z'

loop_
  _atom_site_type_symbol
  _atom_site_label
  _atom_site_symmetry_multiplicity
  _atom_site_fract_x
  _atom_site_fract_y
  _atom_site_fract_z
  _atom_site_occupancy
  P   P1        1.0  0.29015  0.15860  0.99356  1.0000
  O   O1        1.0  0.38729  0.18826  0.18078  1.0000
  O   O2        1.0  0.36534  0.16411  0.83324  1.0000
  O   O3        1.0  0.15280  0.20120  0.00323  1.0000
  C   C1        1.0  0.34728  0.02609  0.94866  1.0000
  C   C2        1.0  0.17363  0.04245  0.06017  1.0000
  C   C3        1.0  0.27260  0.06869  0.01196  1.0000
  H   H1        1.0  0.41915  0.04585  0.90014  1.0000
  C   C4        1.0  0.15272  0.97391  0.05134  1.0000
  C   C5        1.0  0.32638  0.95755  0.93983  1.0000
  H   H2        1.0  0.11442  0.07476  0.10733  1.0000
  C   C6        1.0  0.22740  0.93131  0.98804  1.0000
  H   H3        1.0  0.38558  0.92524  0.89267  1.0000
  H   H4        1.0  0.08085  0.95415  0.09986  1.0000
  O   O4        1.0  0.34720  0.79880  0.99677  1.0000
  O   O5        1.0  0.13465  0.83589  0.16676  1.0000
  P   P2        1.0  0.20985  0.84140  0.00644  1.0000
  O   O6        1.0  0.11271  0.81174  0.81922  1.0000
  P   P3        1.0  0.45985  0.34140  0.00644  1.0000
  O   O7        1.0  0.36271  0.31174  0.81922  1.0000
  P   P4        1.0  0.04015  0.65860  0.99356  1.0000
  O   O8        1.0  0.13729  0.68826  0.18078  1.0000
  O   O9        1.0  0.11534  0.66411  0.83324  1.0000
  O   O10       1.0  0.40280  0.70120  0.00323  1.0000
  C   C7        1.0  0.09728  0.52609  0.94866  1.0000
  C   C8        1.0  0.42362  0.54245  0.06017  1.0000
  C   C9        1.0  0.02261  0.56869  0.01196  1.0000
  H   H5        1.0  0.16915  0.54585  0.90014  1.0000
  H   H6        1.0  0.36442  0.57476  0.10733  1.0000
  C   C10       1.0  0.07637  0.45755  0.93983  1.0000
  C   C11       1.0  0.40272  0.47391  0.05134  1.0000
  C   C12       1.0  0.47740  0.43131  0.98804  1.0000
  H   H7        1.0  0.13558  0.42524  0.89267  1.0000
  H   H8        1.0  0.33085  0.45415  0.09986  1.0000
  O   O11       1.0  0.38466  0.33589  0.16676  1.0000
  O   O12       1.0  0.09720  0.29880  0.99677  1.0000
  O   O13       1.0  0.36534  0.83589  0.33324  1.0000
  C   C13       1.0  0.34728  0.97391  0.44866  1.0000
  O   O14       1.0  0.38729  0.81174  0.68078  1.0000
  O   O15       1.0  0.15280  0.79880  0.50323  1.0000
  P   P5        1.0  0.20985  0.15860  0.50644  1.0000
  O   O16       1.0  0.11271  0.18826  0.31922  1.0000
  O   O17       1.0  0.13466  0.16411  0.66676  1.0000
  O   O18       1.0  0.34720  0.20120  0.49677  1.0000
  C   C14       1.0  0.15272  0.02609  0.55134  1.0000
  C   C15       1.0  0.32638  0.04245  0.43983  1.0000
  C   C16       1.0  0.22740  0.06869  0.48804  1.0000
  H   H9        1.0  0.08085  0.04585  0.59986  1.0000
  H   H10       1.0  0.38558  0.07476  0.39267  1.0000
  C   C17       1.0  0.17362  0.95755  0.56017  1.0000
  C   C18       1.0  0.27260  0.93131  0.51196  1.0000
  H   H11       1.0  0.41915  0.95415  0.40014  1.0000
  H   H12       1.0  0.11442  0.92524  0.60733  1.0000
  P   P6        1.0  0.29015  0.84140  0.49356  1.0000
  C   C19       1.0  0.07637  0.54245  0.43983  1.0000
  C   C20       1.0  0.47740  0.56869  0.48804  1.0000
  H   H13       1.0  0.33084  0.54585  0.59986  1.0000
  H   H14       1.0  0.13558  0.57476  0.39267  1.0000
  C   C21       1.0  0.42362  0.45755  0.56017  1.0000
  C   C22       1.0  0.09728  0.47391  0.44866  1.0000
  C   C23       1.0  0.02261  0.43131  0.51196  1.0000
  H   H15       1.0  0.36442  0.42524  0.60733  1.0000
  H   H16       1.0  0.16915  0.45415  0.40014  1.0000
  O   O19       1.0  0.40280  0.29880  0.50323  1.0000
  O   O20       1.0  0.11535  0.33589  0.33324  1.0000
  O   O21       1.0  0.13729  0.31174  0.68078  1.0000
  P   P7        1.0  0.04015  0.34140  0.49356  1.0000
  P   P8        1.0  0.45985  0.65860  0.50644  1.0000
  O   O22       1.0  0.36271  0.68826  0.31922  1.0000
  O   O23       1.0  0.38466  0.66411  0.66676  1.0000
  O   O24       1.0  0.09720  0.70120  0.49677  1.0000
  C   C24       1.0  0.40272  0.52609  0.55134  1.0000
  Nd  Nd1       1.0  0.25000  0.26177  0.25000  1.0000
  Nd  Nd2       1.0  0.00000  0.76177  0.25000  1.0000
  Nd  Nd3       1.0  0.25000  0.73823  0.75000  1.0000
  Nd  Nd4       1.0  0.50000  0.23823  0.75000  1.0000
  P   P9        1.0  0.79015  0.15860  0.99356  1.0000
  O   O25       1.0  0.88729  0.18826  0.18078  1.0000
  O   O26       1.0  0.86534  0.16411  0.83324  1.0000
  O   O27       1.0  0.65280  0.20120  0.00323  1.0000
  C   C25       1.0  0.84728  0.02609  0.94866  1.0000
  C   C26       1.0  0.67363  0.04245  0.06017  1.0000
  C   C27       1.0  0.77260  0.06869  0.01196  1.0000
  H   H17       1.0  0.91916  0.04585  0.90014  1.0000
  C   C28       1.0  0.65272  0.97391  0.05134  1.0000
  C   C29       1.0  0.82638  0.95755  0.93983  1.0000
  H   H18       1.0  0.61442  0.07476  0.10733  1.0000
  C   C30       1.0  0.72740  0.93131  0.98804  1.0000
  H   H19       1.0  0.88558  0.92524  0.89267  1.0000
  H   H20       1.0  0.58085  0.95415  0.09986  1.0000
  O   O28       1.0  0.84720  0.79880  0.99677  1.0000
  O   O29       1.0  0.63465  0.83589  0.16676  1.0000
  P   P10       1.0  0.70985  0.84140  0.00644  1.0000
  O   O30       1.0  0.61271  0.81174  0.81922  1.0000
  P   P11       1.0  0.95985  0.34140  0.00644  1.0000
  O   O31       1.0  0.86271  0.31174  0.81922  1.0000
  P   P12       1.0  0.54015  0.65860  0.99356  1.0000
  O   O32       1.0  0.63729  0.68826  0.18078  1.0000
  O   O33       1.0  0.61535  0.66411  0.83324  1.0000
  O   O34       1.0  0.90280  0.70120  0.00323  1.0000
  C   C31       1.0  0.59728  0.52609  0.94866  1.0000
  C   C32       1.0  0.92363  0.54245  0.06017  1.0000
  C   C33       1.0  0.52260  0.56869  0.01196  1.0000
  H   H21       1.0  0.66915  0.54585  0.90014  1.0000
  H   H22       1.0  0.86442  0.57476  0.10733  1.0000
  C   C34       1.0  0.57637  0.45755  0.93983  1.0000
  C   C35       1.0  0.90272  0.47391  0.05134  1.0000
  C   C36       1.0  0.97739  0.43131  0.98804  1.0000
  H   H23       1.0  0.63558  0.42524  0.89267  1.0000
  H   H24       1.0  0.83084  0.45415  0.09986  1.0000
  O   O35       1.0  0.88465  0.33589  0.16676  1.0000
  O   O36       1.0  0.59720  0.29880  0.99677  1.0000
  O   O37       1.0  0.86534  0.83589  0.33324  1.0000
  C   C37       1.0  0.84728  0.97391  0.44866  1.0000
  O   O38       1.0  0.88729  0.81174  0.68078  1.0000
  O   O39       1.0  0.65280  0.79880  0.50323  1.0000
  P   P13       1.0  0.70985  0.15860  0.50644  1.0000
  O   O40       1.0  0.61271  0.18826  0.31922  1.0000
  O   O41       1.0  0.63466  0.16411  0.66676  1.0000
  O   O42       1.0  0.84720  0.20120  0.49677  1.0000
  C   C38       1.0  0.65272  0.02609  0.55134  1.0000
  C   C39       1.0  0.82638  0.04245  0.43983  1.0000
  C   C40       1.0  0.72740  0.06869  0.48804  1.0000
  H   H25       1.0  0.58085  0.04585  0.59986  1.0000
  H   H26       1.0  0.88558  0.07476  0.39267  1.0000
  C   C41       1.0  0.67363  0.95755  0.56017  1.0000
  C   C42       1.0  0.77261  0.93131  0.51196  1.0000
  H   H27       1.0  0.91915  0.95415  0.40014  1.0000
  H   H28       1.0  0.61442  0.92524  0.60733  1.0000
  P   P14       1.0  0.79015  0.84140  0.49356  1.0000
  C   C43       1.0  0.57637  0.54245  0.43983  1.0000
  C   C44       1.0  0.97740  0.56869  0.48804  1.0000
  H   H29       1.0  0.83084  0.54585  0.59986  1.0000
  H   H30       1.0  0.63558  0.57476  0.39267  1.0000
  C   C45       1.0  0.92363  0.45755  0.56017  1.0000
  C   C46       1.0  0.59728  0.47391  0.44866  1.0000
  C   C47       1.0  0.52260  0.43131  0.51196  1.0000
  H   H31       1.0  0.86442  0.42524  0.60733  1.0000
  H   H32       1.0  0.66915  0.45415  0.40014  1.0000
  O   O43       1.0  0.90280  0.29880  0.50323  1.0000
  O   O44       1.0  0.61535  0.33589  0.33324  1.0000
  O   O45       1.0  0.63729  0.31174  0.68078  1.0000
  P   P15       1.0  0.54015  0.34140  0.49356  1.0000
  P   P16       1.0  0.95985  0.65860  0.50644  1.0000
  O   O46       1.0  0.86271  0.68826  0.31922  1.0000
  O   O47       1.0  0.88465  0.66411  0.66676  1.0000
  O   O48       1.0  0.59720  0.70120  0.49677  1.0000
  C   C48       1.0  0.90272  0.52609  0.55134  1.0000
  Nd  Nd5       1.0  0.75000  0.26177  0.25000  1.0000
  Nd  Nd6       1.0  0.50000  0.76177  0.25000  1.0000
  Nd  Nd7       1.0  0.75000  0.73823  0.75000  1.0000
  Nd  Nd8       1.0  0.00000  0.23823  0.75000  1.0000
