data_image0
_chemical_formula_structural       PO3C3HC2HCH2O2POPOPO3C3H2C3H2O3CO2PO3C3H2C2H2PC2H2C3H2O3P2O3CCe4PO3C3HC2HCH2O2POPOPO3C3H2C3H2O3CO2PO3C3H2C2H2PC2H2C3H2O3P2O3CCe4
_chemical_formula_sum              "P16 O48 C48 H32 Ce8"
_cell_length_a       11.2194
_cell_length_b       20.1193
_cell_length_c       8.3515
_cell_angle_alpha    90
_cell_angle_beta     108.63
_cell_angle_gamma    90

_space_group_name_H-M_alt    "P 1"
_space_group_IT_number       1

loop_
  _space_group_symop_operation_xyz
  'x, y, z'

loop_
  _atom_site_type_symbol
  _atom_site_label
  _atom_site_symmetry_multiplicity
  _atom_site_fract_x
  _atom_site_fract_y
  _atom_site_fract_z
  _atom_site_occupancy
  P   P1        1.0  0.29196  0.16031  0.94979  1.0000
  O   O1        1.0  0.35172  0.16671  0.16730  1.0000
  O   O2        1.0  0.44095  0.16281  0.91829  1.0000
  O   O3        1.0  0.21808  0.23818  0.94897  1.0000
  C   C1        1.0  0.33945  0.02242  0.93107  1.0000
  C   C2        1.0  0.17033  0.04615  0.04117  1.0000
  C   C3        1.0  0.25889  0.06953  0.96935  1.0000
  H   H1        1.0  0.40886  0.03855  0.87480  1.0000
  C   C4        1.0  0.16055  0.97758  0.06893  1.0000
  C   C5        1.0  0.32967  0.95385  0.95883  1.0000
  H   H2        1.0  0.11104  0.08067  0.07962  1.0000
  C   C6        1.0  0.24111  0.93047  0.03065  1.0000
  H   H3        1.0  0.38895  0.91933  0.92038  1.0000
  H   H4        1.0  0.09113  0.96145  0.12520  1.0000
  O   O4        1.0  0.14827  0.83329  0.83270  1.0000
  O   O5        1.0  0.28192  0.76182  0.05103  1.0000
  P   P2        1.0  0.20804  0.83969  0.05021  1.0000
  O   O6        1.0  0.05905  0.83719  0.08171  1.0000
  P   P3        1.0  0.45804  0.33969  0.05021  1.0000
  O   O7        1.0  0.39827  0.33329  0.83270  1.0000
  P   P4        1.0  0.04196  0.66031  0.94979  1.0000
  O   O8        1.0  0.10172  0.66671  0.16730  1.0000
  O   O9        1.0  0.19095  0.66281  0.91829  1.0000
  O   O10       1.0  0.46809  0.73818  0.94897  1.0000
  C   C7        1.0  0.08945  0.52242  0.93107  1.0000
  C   C8        1.0  0.42033  0.54615  0.04117  1.0000
  C   C9        1.0  0.00889  0.56953  0.96935  1.0000
  H   H5        1.0  0.15886  0.53855  0.87480  1.0000
  H   H6        1.0  0.36105  0.58067  0.07962  1.0000
  C   C10       1.0  0.07967  0.45385  0.95883  1.0000
  C   C11       1.0  0.41055  0.47758  0.06893  1.0000
  C   C12       1.0  0.49112  0.43047  0.03065  1.0000
  H   H7        1.0  0.13895  0.41933  0.92038  1.0000
  H   H8        1.0  0.34114  0.46145  0.12520  1.0000
  O   O11       1.0  0.30905  0.33719  0.08171  1.0000
  O   O12       1.0  0.03191  0.26182  0.05103  1.0000
  O   O13       1.0  0.44095  0.83719  0.41829  1.0000
  C   C13       1.0  0.33945  0.97758  0.43107  1.0000
  O   O14       1.0  0.35172  0.83329  0.66730  1.0000
  O   O15       1.0  0.21809  0.76182  0.44897  1.0000
  P   P5        1.0  0.20804  0.16031  0.55021  1.0000
  O   O16       1.0  0.14827  0.16671  0.33270  1.0000
  O   O17       1.0  0.05905  0.16281  0.58171  1.0000
  O   O18       1.0  0.28191  0.23818  0.55103  1.0000
  C   C14       1.0  0.16055  0.02242  0.56893  1.0000
  C   C15       1.0  0.32967  0.04615  0.45883  1.0000
  C   C16       1.0  0.24111  0.06953  0.53065  1.0000
  H   H9        1.0  0.09114  0.03855  0.62520  1.0000
  H   H10       1.0  0.38895  0.08067  0.42038  1.0000
  C   C17       1.0  0.17033  0.95385  0.54117  1.0000
  C   C18       1.0  0.25888  0.93047  0.46935  1.0000
  H   H11       1.0  0.40886  0.96145  0.37480  1.0000
  H   H12       1.0  0.11105  0.91933  0.57962  1.0000
  P   P6        1.0  0.29196  0.83969  0.44979  1.0000
  C   C19       1.0  0.07967  0.54615  0.45883  1.0000
  C   C20       1.0  0.49112  0.56953  0.53065  1.0000
  H   H13       1.0  0.34114  0.53855  0.62520  1.0000
  H   H14       1.0  0.13895  0.58067  0.42038  1.0000
  C   C21       1.0  0.42033  0.45385  0.54117  1.0000
  C   C22       1.0  0.08945  0.47758  0.43107  1.0000
  C   C23       1.0  0.00888  0.43047  0.46935  1.0000
  H   H15       1.0  0.36105  0.41933  0.57962  1.0000
  H   H16       1.0  0.15887  0.46145  0.37480  1.0000
  O   O19       1.0  0.46808  0.26182  0.44897  1.0000
  O   O20       1.0  0.19095  0.33719  0.41829  1.0000
  O   O21       1.0  0.10172  0.33329  0.66730  1.0000
  P   P7        1.0  0.04196  0.33969  0.44979  1.0000
  P   P8        1.0  0.45804  0.66031  0.55021  1.0000
  O   O22       1.0  0.39827  0.66671  0.33270  1.0000
  O   O23       1.0  0.30905  0.66281  0.58171  1.0000
  O   O24       1.0  0.03191  0.73818  0.55103  1.0000
  C   C24       1.0  0.41055  0.52242  0.56893  1.0000
  Ce  Ce1       1.0  0.25000  0.25681  0.25000  1.0000
  Ce  Ce2       1.0  0.50000  0.75681  0.25000  1.0000
  Ce  Ce3       1.0  0.25000  0.74319  0.75000  1.0000
  Ce  Ce4       1.0  1.00000  0.24319  0.75000  1.0000
  P   P9        1.0  0.79196  0.16031  0.94979  1.0000
  O   O25       1.0  0.85173  0.16671  0.16730  1.0000
  O   O26       1.0  0.94095  0.16281  0.91829  1.0000
  O   O27       1.0  0.71808  0.23818  0.94897  1.0000
  C   C25       1.0  0.83945  0.02242  0.93107  1.0000
  C   C26       1.0  0.67033  0.04615  0.04117  1.0000
  C   C27       1.0  0.75889  0.06953  0.96935  1.0000
  H   H17       1.0  0.90886  0.03855  0.87480  1.0000
  C   C28       1.0  0.66055  0.97758  0.06893  1.0000
  C   C29       1.0  0.82967  0.95385  0.95883  1.0000
  H   H18       1.0  0.61104  0.08067  0.07962  1.0000
  C   C30       1.0  0.74111  0.93047  0.03065  1.0000
  H   H19       1.0  0.88896  0.91933  0.92038  1.0000
  H   H20       1.0  0.59113  0.96145  0.12520  1.0000
  O   O28       1.0  0.64828  0.83329  0.83270  1.0000
  O   O29       1.0  0.78192  0.76182  0.05103  1.0000
  P   P10       1.0  0.70804  0.83969  0.05021  1.0000
  O   O30       1.0  0.55905  0.83719  0.08171  1.0000
  P   P11       1.0  0.95804  0.33969  0.05021  1.0000
  O   O31       1.0  0.89828  0.33329  0.83270  1.0000
  P   P12       1.0  0.54196  0.66031  0.94979  1.0000
  O   O32       1.0  0.60173  0.66671  0.16730  1.0000
  O   O33       1.0  0.69095  0.66281  0.91829  1.0000
  O   O34       1.0  0.96808  0.73818  0.94897  1.0000
  C   C31       1.0  0.58945  0.52242  0.93107  1.0000
  C   C32       1.0  0.92033  0.54615  0.04117  1.0000
  C   C33       1.0  0.50889  0.56953  0.96935  1.0000
  H   H21       1.0  0.65887  0.53855  0.87480  1.0000
  H   H22       1.0  0.86105  0.58067  0.07962  1.0000
  C   C34       1.0  0.57967  0.45385  0.95883  1.0000
  C   C35       1.0  0.91055  0.47758  0.06893  1.0000
  C   C36       1.0  0.99112  0.43047  0.03065  1.0000
  H   H23       1.0  0.63895  0.41933  0.92038  1.0000
  H   H24       1.0  0.84114  0.46145  0.12520  1.0000
  O   O35       1.0  0.80905  0.33719  0.08171  1.0000
  O   O36       1.0  0.53192  0.26182  0.05103  1.0000
  O   O37       1.0  0.94095  0.83719  0.41829  1.0000
  C   C37       1.0  0.83945  0.97758  0.43107  1.0000
  O   O38       1.0  0.85173  0.83329  0.66730  1.0000
  O   O39       1.0  0.71808  0.76182  0.44897  1.0000
  P   P13       1.0  0.70804  0.16031  0.55021  1.0000
  O   O40       1.0  0.64828  0.16671  0.33270  1.0000
  O   O41       1.0  0.55905  0.16281  0.58171  1.0000
  O   O42       1.0  0.78192  0.23818  0.55103  1.0000
  C   C38       1.0  0.66055  0.02242  0.56893  1.0000
  C   C39       1.0  0.82967  0.04615  0.45883  1.0000
  C   C40       1.0  0.74111  0.06953  0.53065  1.0000
  H   H25       1.0  0.59113  0.03855  0.62520  1.0000
  H   H26       1.0  0.88895  0.08067  0.42038  1.0000
  C   C41       1.0  0.67033  0.95385  0.54117  1.0000
  C   C42       1.0  0.75888  0.93047  0.46935  1.0000
  H   H27       1.0  0.90886  0.96145  0.37480  1.0000
  H   H28       1.0  0.61105  0.91933  0.57962  1.0000
  P   P14       1.0  0.79196  0.83969  0.44979  1.0000
  C   C43       1.0  0.57967  0.54615  0.45883  1.0000
  C   C44       1.0  0.99112  0.56953  0.53065  1.0000
  H   H29       1.0  0.84113  0.53855  0.62520  1.0000
  H   H30       1.0  0.63895  0.58067  0.42038  1.0000
  C   C45       1.0  0.92033  0.45385  0.54117  1.0000
  C   C46       1.0  0.58945  0.47758  0.43107  1.0000
  C   C47       1.0  0.50889  0.43047  0.46935  1.0000
  H   H31       1.0  0.86104  0.41933  0.57962  1.0000
  H   H32       1.0  0.65887  0.46145  0.37480  1.0000
  O   O43       1.0  0.96808  0.26182  0.44897  1.0000
  O   O44       1.0  0.69095  0.33719  0.41829  1.0000
  O   O45       1.0  0.60172  0.33329  0.66730  1.0000
  P   P15       1.0  0.54196  0.33969  0.44979  1.0000
  P   P16       1.0  0.95804  0.66031  0.55021  1.0000
  O   O46       1.0  0.89828  0.66671  0.33270  1.0000
  O   O47       1.0  0.80905  0.66281  0.58171  1.0000
  O   O48       1.0  0.53191  0.73818  0.55103  1.0000
  C   C48       1.0  0.91055  0.52242  0.56893  1.0000
  Ce  Ce5       1.0  0.75000  0.25681  0.25000  1.0000
  Ce  Ce6       1.0  0.00000  0.75681  0.25000  1.0000
  Ce  Ce7       1.0  0.75000  0.74319  0.75000  1.0000
  Ce  Ce8       1.0  0.50000  0.24319  0.75000  1.0000
