data_image0
_chemical_formula_structural       PO3C3HC2HCH2O2POPOPO3C3H2C3H2O3CO2PO3C3H2C2H2PC2H2C3H2O3P2O3CHo4PO3C3HC2HCH2O2POPOPO3C3H2C3H2O3CO2PO3C3H2C2H2PC2H2C3H2O3P2O3CHo4
_chemical_formula_sum              "P16 O48 C48 H32 Ho8"
_cell_length_a       10.8844
_cell_length_b       19.8901
_cell_length_c       8.0821
_cell_angle_alpha    90
_cell_angle_beta     108.172
_cell_angle_gamma    90

_space_group_name_H-M_alt    "P 1"
_space_group_IT_number       1

loop_
  _space_group_symop_operation_xyz
  'x, y, z'

loop_
  _atom_site_type_symbol
  _atom_site_label
  _atom_site_symmetry_multiplicity
  _atom_site_fract_x
  _atom_site_fract_y
  _atom_site_fract_z
  _atom_site_occupancy
  P   P1        1.0  0.28901  0.16220  0.95012  1.0000
  O   O1        1.0  0.35530  0.16995  0.17237  1.0000
  O   O2        1.0  0.43707  0.16286  0.90101  1.0000
  O   O3        1.0  0.21206  0.24054  0.95063  1.0000
  C   C1        1.0  0.34180  0.02365  0.92960  1.0000
  C   C2        1.0  0.16731  0.04587  0.04496  1.0000
  C   C3        1.0  0.25801  0.07044  0.97137  1.0000
  H   H1        1.0  0.41158  0.04047  0.86889  1.0000
  C   C4        1.0  0.15820  0.97635  0.07040  1.0000
  C   C5        1.0  0.33269  0.95413  0.95504  1.0000
  H   H2        1.0  0.10599  0.08007  0.08681  1.0000
  C   C6        1.0  0.24199  0.92956  0.02863  1.0000
  H   H3        1.0  0.39400  0.91993  0.91319  1.0000
  H   H4        1.0  0.08841  0.95953  0.13111  1.0000
  O   O4        1.0  0.14470  0.83005  0.82763  1.0000
  O   O5        1.0  0.28793  0.75946  0.04937  1.0000
  P   P2        1.0  0.21099  0.83780  0.04988  1.0000
  O   O6        1.0  0.06293  0.83714  0.09899  1.0000
  P   P3        1.0  0.46099  0.33780  0.04988  1.0000
  O   O7        1.0  0.39471  0.33005  0.82763  1.0000
  P   P4        1.0  0.03901  0.66220  0.95012  1.0000
  O   O8        1.0  0.10529  0.66995  0.17237  1.0000
  O   O9        1.0  0.18707  0.66286  0.90101  1.0000
  O   O10       1.0  0.46207  0.74054  0.95063  1.0000
  C   C7        1.0  0.09180  0.52365  0.92960  1.0000
  C   C8        1.0  0.41731  0.54587  0.04496  1.0000
  C   C9        1.0  0.00801  0.57044  0.97137  1.0000
  H   H5        1.0  0.16158  0.54047  0.86889  1.0000
  H   H6        1.0  0.35600  0.58007  0.08681  1.0000
  C   C10       1.0  0.08269  0.45413  0.95504  1.0000
  C   C11       1.0  0.40820  0.47635  0.07040  1.0000
  C   C12       1.0  0.49199  0.42956  0.02863  1.0000
  H   H7        1.0  0.14400  0.41993  0.91319  1.0000
  H   H8        1.0  0.33842  0.45953  0.13111  1.0000
  O   O11       1.0  0.31293  0.33714  0.09899  1.0000
  O   O12       1.0  0.03793  0.25946  0.04937  1.0000
  O   O13       1.0  0.43707  0.83714  0.40101  1.0000
  C   C13       1.0  0.34180  0.97635  0.42960  1.0000
  O   O14       1.0  0.35530  0.83005  0.67237  1.0000
  O   O15       1.0  0.21207  0.75946  0.45063  1.0000
  P   P5        1.0  0.21099  0.16220  0.54988  1.0000
  O   O16       1.0  0.14471  0.16995  0.32763  1.0000
  O   O17       1.0  0.06293  0.16286  0.59899  1.0000
  O   O18       1.0  0.28793  0.24054  0.54937  1.0000
  C   C14       1.0  0.15820  0.02365  0.57040  1.0000
  C   C15       1.0  0.33269  0.04587  0.45504  1.0000
  C   C16       1.0  0.24199  0.07044  0.52863  1.0000
  H   H9        1.0  0.08841  0.04047  0.63111  1.0000
  H   H10       1.0  0.39400  0.08007  0.41319  1.0000
  C   C17       1.0  0.16731  0.95413  0.54496  1.0000
  C   C18       1.0  0.25801  0.92956  0.47137  1.0000
  H   H11       1.0  0.41158  0.95953  0.36889  1.0000
  H   H12       1.0  0.10599  0.91993  0.58681  1.0000
  P   P6        1.0  0.28901  0.83780  0.45012  1.0000
  C   C19       1.0  0.08269  0.54587  0.45504  1.0000
  C   C20       1.0  0.49199  0.57044  0.52863  1.0000
  H   H13       1.0  0.33842  0.54047  0.63111  1.0000
  H   H14       1.0  0.14400  0.58007  0.41319  1.0000
  C   C21       1.0  0.41731  0.45413  0.54496  1.0000
  C   C22       1.0  0.09180  0.47635  0.42960  1.0000
  C   C23       1.0  0.00801  0.42956  0.47137  1.0000
  H   H15       1.0  0.35600  0.41993  0.58681  1.0000
  H   H16       1.0  0.16159  0.45953  0.36889  1.0000
  O   O19       1.0  0.46207  0.25946  0.45063  1.0000
  O   O20       1.0  0.18707  0.33714  0.40101  1.0000
  O   O21       1.0  0.10529  0.33005  0.67237  1.0000
  P   P7        1.0  0.03901  0.33780  0.45012  1.0000
  P   P8        1.0  0.46099  0.66220  0.54988  1.0000
  O   O22       1.0  0.39471  0.66995  0.32763  1.0000
  O   O23       1.0  0.31293  0.66286  0.59899  1.0000
  O   O24       1.0  0.03794  0.74054  0.54937  1.0000
  C   C24       1.0  0.40820  0.52365  0.57040  1.0000
  Ho  Ho1       1.0  0.25000  0.25570  0.25000  1.0000
  Ho  Ho2       1.0  0.50000  0.75570  0.25000  1.0000
  Ho  Ho3       1.0  0.25000  0.74430  0.75000  1.0000
  Ho  Ho4       1.0  0.50000  0.24430  0.75000  1.0000
  P   P9        1.0  0.78901  0.16220  0.95012  1.0000
  O   O25       1.0  0.85530  0.16995  0.17237  1.0000
  O   O26       1.0  0.93707  0.16286  0.90101  1.0000
  O   O27       1.0  0.71206  0.24054  0.95063  1.0000
  C   C25       1.0  0.84180  0.02365  0.92960  1.0000
  C   C26       1.0  0.66731  0.04587  0.04496  1.0000
  C   C27       1.0  0.75801  0.07044  0.97137  1.0000
  H   H17       1.0  0.91159  0.04047  0.86889  1.0000
  C   C28       1.0  0.65820  0.97635  0.07040  1.0000
  C   C29       1.0  0.83269  0.95413  0.95504  1.0000
  H   H18       1.0  0.60600  0.08007  0.08681  1.0000
  C   C30       1.0  0.74199  0.92956  0.02863  1.0000
  H   H19       1.0  0.89400  0.91993  0.91319  1.0000
  H   H20       1.0  0.58842  0.95953  0.13111  1.0000
  O   O28       1.0  0.64470  0.83005  0.82763  1.0000
  O   O29       1.0  0.78793  0.75946  0.04937  1.0000
  P   P10       1.0  0.71099  0.83780  0.04988  1.0000
  O   O30       1.0  0.56293  0.83714  0.09899  1.0000
  P   P11       1.0  0.96099  0.33780  0.04988  1.0000
  O   O31       1.0  0.89470  0.33005  0.82763  1.0000
  P   P12       1.0  0.53901  0.66220  0.95012  1.0000
  O   O32       1.0  0.60530  0.66995  0.17237  1.0000
  O   O33       1.0  0.68707  0.66286  0.90101  1.0000
  O   O34       1.0  0.96207  0.74054  0.95063  1.0000
  C   C31       1.0  0.59180  0.52365  0.92960  1.0000
  C   C32       1.0  0.91731  0.54587  0.04496  1.0000
  C   C33       1.0  0.50801  0.57044  0.97137  1.0000
  H   H21       1.0  0.66158  0.54047  0.86889  1.0000
  H   H22       1.0  0.85599  0.58007  0.08681  1.0000
  C   C34       1.0  0.58269  0.45413  0.95504  1.0000
  C   C35       1.0  0.90820  0.47635  0.07040  1.0000
  C   C36       1.0  0.99199  0.42956  0.02863  1.0000
  H   H23       1.0  0.64401  0.41993  0.91319  1.0000
  H   H24       1.0  0.83841  0.45953  0.13111  1.0000
  O   O35       1.0  0.81293  0.33714  0.09899  1.0000
  O   O36       1.0  0.53793  0.25946  0.04937  1.0000
  O   O37       1.0  0.93707  0.83714  0.40101  1.0000
  C   C37       1.0  0.84180  0.97635  0.42960  1.0000
  O   O38       1.0  0.85530  0.83005  0.67237  1.0000
  O   O39       1.0  0.71207  0.75946  0.45063  1.0000
  P   P13       1.0  0.71099  0.16220  0.54988  1.0000
  O   O40       1.0  0.64470  0.16995  0.32763  1.0000
  O   O41       1.0  0.56293  0.16286  0.59899  1.0000
  O   O42       1.0  0.78793  0.24054  0.54937  1.0000
  C   C38       1.0  0.65820  0.02365  0.57040  1.0000
  C   C39       1.0  0.83269  0.04587  0.45504  1.0000
  C   C40       1.0  0.74199  0.07044  0.52863  1.0000
  H   H25       1.0  0.58841  0.04047  0.63111  1.0000
  H   H26       1.0  0.89401  0.08007  0.41319  1.0000
  C   C41       1.0  0.66731  0.95413  0.54496  1.0000
  C   C42       1.0  0.75801  0.92956  0.47137  1.0000
  H   H27       1.0  0.91158  0.95953  0.36889  1.0000
  H   H28       1.0  0.60599  0.91993  0.58681  1.0000
  P   P14       1.0  0.78901  0.83780  0.45012  1.0000
  C   C43       1.0  0.58269  0.54587  0.45504  1.0000
  C   C44       1.0  0.99199  0.57044  0.52863  1.0000
  H   H29       1.0  0.83841  0.54047  0.63111  1.0000
  H   H30       1.0  0.64401  0.58007  0.41319  1.0000
  C   C45       1.0  0.91731  0.45413  0.54496  1.0000
  C   C46       1.0  0.59180  0.47635  0.42960  1.0000
  C   C47       1.0  0.50801  0.42956  0.47137  1.0000
  H   H31       1.0  0.85600  0.41993  0.58681  1.0000
  H   H32       1.0  0.66158  0.45953  0.36889  1.0000
  O   O43       1.0  0.96207  0.25946  0.45063  1.0000
  O   O44       1.0  0.68707  0.33714  0.40101  1.0000
  O   O45       1.0  0.60530  0.33005  0.67237  1.0000
  P   P15       1.0  0.53901  0.33780  0.45012  1.0000
  P   P16       1.0  0.96099  0.66220  0.54988  1.0000
  O   O46       1.0  0.89470  0.66995  0.32763  1.0000
  O   O47       1.0  0.81293  0.66286  0.59899  1.0000
  O   O48       1.0  0.53793  0.74054  0.54937  1.0000
  C   C48       1.0  0.90820  0.52365  0.57040  1.0000
  Ho  Ho5       1.0  0.75000  0.25570  0.25000  1.0000
  Ho  Ho6       1.0  0.00000  0.75570  0.25000  1.0000
  Ho  Ho7       1.0  0.75000  0.74430  0.75000  1.0000
  Ho  Ho8       1.0  0.00000  0.24430  0.75000  1.0000
