data_image0
_chemical_formula_structural       PO3C3HC2HCH2O2POPOPO3C3H2C3H2O3CO2PO3C3H2C2H2PC2H2C3H2O3P2O3CGd4PO3C3HC2HCH2O2POPOPO3C3H2C3H2O3CO2PO3C3H2C2H2PC2H2C3H2O3P2O3CGd4
_chemical_formula_sum              "P16 O48 C48 H32 Gd8"
_cell_length_a       10.9946
_cell_length_b       19.9857
_cell_length_c       8.1565
_cell_angle_alpha    90
_cell_angle_beta     108.296
_cell_angle_gamma    90

_space_group_name_H-M_alt    "P 1"
_space_group_IT_number       1

loop_
  _space_group_symop_operation_xyz
  'x, y, z'

loop_
  _atom_site_type_symbol
  _atom_site_label
  _atom_site_symmetry_multiplicity
  _atom_site_fract_x
  _atom_site_fract_y
  _atom_site_fract_z
  _atom_site_occupancy
  P   P1        1.0  0.29046  0.16126  0.95025  1.0000
  O   O1        1.0  0.35404  0.16856  0.17119  1.0000
  O   O2        1.0  0.43929  0.16266  0.90872  1.0000
  O   O3        1.0  0.21515  0.23956  0.94922  1.0000
  C   C1        1.0  0.34120  0.02315  0.93012  1.0000
  C   C2        1.0  0.16830  0.04595  0.04356  1.0000
  C   C3        1.0  0.25844  0.07001  0.97057  1.0000
  H   H1        1.0  0.41101  0.03972  0.87101  1.0000
  C   C4        1.0  0.15880  0.97685  0.06988  1.0000
  C   C5        1.0  0.33170  0.95405  0.95644  1.0000
  H   H2        1.0  0.10771  0.08026  0.08427  1.0000
  C   C6        1.0  0.24155  0.92999  0.02943  1.0000
  H   H3        1.0  0.39229  0.91974  0.91573  1.0000
  H   H4        1.0  0.08898  0.96028  0.12899  1.0000
  O   O4        1.0  0.14595  0.83144  0.82881  1.0000
  O   O5        1.0  0.28485  0.76044  0.05078  1.0000
  P   P2        1.0  0.20954  0.83874  0.04975  1.0000
  O   O6        1.0  0.06071  0.83734  0.09128  1.0000
  P   P3        1.0  0.45954  0.33874  0.04975  1.0000
  O   O7        1.0  0.39596  0.33144  0.82881  1.0000
  P   P4        1.0  0.04046  0.66126  0.95025  1.0000
  O   O8        1.0  0.10404  0.66856  0.17119  1.0000
  O   O9        1.0  0.18929  0.66266  0.90872  1.0000
  O   O10       1.0  0.46515  0.73956  0.94922  1.0000
  C   C7        1.0  0.09120  0.52315  0.93012  1.0000
  C   C8        1.0  0.41830  0.54595  0.04356  1.0000
  C   C9        1.0  0.00845  0.57001  0.97057  1.0000
  H   H5        1.0  0.16101  0.53972  0.87101  1.0000
  H   H6        1.0  0.35771  0.58026  0.08427  1.0000
  C   C10       1.0  0.08170  0.45405  0.95644  1.0000
  C   C11       1.0  0.40880  0.47685  0.06988  1.0000
  C   C12       1.0  0.49156  0.42999  0.02943  1.0000
  H   H7        1.0  0.14229  0.41974  0.91573  1.0000
  H   H8        1.0  0.33898  0.46028  0.12899  1.0000
  O   O11       1.0  0.31071  0.33734  0.09128  1.0000
  O   O12       1.0  0.03485  0.26044  0.05078  1.0000
  O   O13       1.0  0.43929  0.83734  0.40872  1.0000
  C   C13       1.0  0.34119  0.97685  0.43012  1.0000
  O   O14       1.0  0.35404  0.83144  0.67119  1.0000
  O   O15       1.0  0.21515  0.76044  0.44922  1.0000
  P   P5        1.0  0.20954  0.16126  0.54975  1.0000
  O   O16       1.0  0.14595  0.16856  0.32881  1.0000
  O   O17       1.0  0.06070  0.16266  0.59128  1.0000
  O   O18       1.0  0.28485  0.23956  0.55078  1.0000
  C   C14       1.0  0.15881  0.02315  0.56988  1.0000
  C   C15       1.0  0.33170  0.04595  0.45644  1.0000
  C   C16       1.0  0.24155  0.07001  0.52943  1.0000
  H   H9        1.0  0.08898  0.03972  0.62899  1.0000
  H   H10       1.0  0.39229  0.08026  0.41573  1.0000
  C   C17       1.0  0.16830  0.95405  0.54356  1.0000
  C   C18       1.0  0.25844  0.92999  0.47057  1.0000
  H   H11       1.0  0.41101  0.96028  0.37101  1.0000
  H   H12       1.0  0.10771  0.91974  0.58427  1.0000
  P   P6        1.0  0.29046  0.83874  0.45025  1.0000
  C   C19       1.0  0.08170  0.54595  0.45644  1.0000
  C   C20       1.0  0.49156  0.57001  0.52943  1.0000
  H   H13       1.0  0.33898  0.53972  0.62899  1.0000
  H   H14       1.0  0.14229  0.58026  0.41573  1.0000
  C   C21       1.0  0.41830  0.45405  0.54356  1.0000
  C   C22       1.0  0.09119  0.47685  0.43012  1.0000
  C   C23       1.0  0.00844  0.42999  0.47057  1.0000
  H   H15       1.0  0.35771  0.41974  0.58427  1.0000
  H   H16       1.0  0.16101  0.46028  0.37101  1.0000
  O   O19       1.0  0.46515  0.26044  0.44922  1.0000
  O   O20       1.0  0.18930  0.33734  0.40872  1.0000
  O   O21       1.0  0.10404  0.33144  0.67119  1.0000
  P   P7        1.0  0.04046  0.33874  0.45025  1.0000
  P   P8        1.0  0.45954  0.66126  0.54975  1.0000
  O   O22       1.0  0.39596  0.66856  0.32881  1.0000
  O   O23       1.0  0.31071  0.66266  0.59128  1.0000
  O   O24       1.0  0.03485  0.73956  0.55078  1.0000
  C   C24       1.0  0.40880  0.52315  0.56988  1.0000
  Gd  Gd1       1.0  0.25000  0.25624  0.25000  1.0000
  Gd  Gd2       1.0  0.50000  0.75624  0.25000  1.0000
  Gd  Gd3       1.0  0.25000  0.74376  0.75000  1.0000
  Gd  Gd4       1.0  0.00000  0.24376  0.75000  1.0000
  P   P9        1.0  0.79046  0.16126  0.95025  1.0000
  O   O25       1.0  0.85404  0.16856  0.17119  1.0000
  O   O26       1.0  0.93929  0.16266  0.90872  1.0000
  O   O27       1.0  0.71515  0.23956  0.94922  1.0000
  C   C25       1.0  0.84120  0.02315  0.93012  1.0000
  C   C26       1.0  0.66830  0.04595  0.04356  1.0000
  C   C27       1.0  0.75845  0.07001  0.97057  1.0000
  H   H17       1.0  0.91101  0.03972  0.87101  1.0000
  C   C28       1.0  0.65881  0.97685  0.06988  1.0000
  C   C29       1.0  0.83170  0.95405  0.95644  1.0000
  H   H18       1.0  0.60771  0.08026  0.08427  1.0000
  C   C30       1.0  0.74156  0.92999  0.02943  1.0000
  H   H19       1.0  0.89229  0.91974  0.91573  1.0000
  H   H20       1.0  0.58898  0.96028  0.12899  1.0000
  O   O28       1.0  0.64595  0.83144  0.82881  1.0000
  O   O29       1.0  0.78485  0.76044  0.05078  1.0000
  P   P10       1.0  0.70954  0.83874  0.04975  1.0000
  O   O30       1.0  0.56071  0.83734  0.09128  1.0000
  P   P11       1.0  0.95954  0.33874  0.04975  1.0000
  O   O31       1.0  0.89595  0.33144  0.82881  1.0000
  P   P12       1.0  0.54046  0.66126  0.95025  1.0000
  O   O32       1.0  0.60405  0.66856  0.17119  1.0000
  O   O33       1.0  0.68929  0.66266  0.90872  1.0000
  O   O34       1.0  0.96515  0.73956  0.94922  1.0000
  C   C31       1.0  0.59119  0.52315  0.93012  1.0000
  C   C32       1.0  0.91830  0.54595  0.04356  1.0000
  C   C33       1.0  0.50845  0.57001  0.97057  1.0000
  H   H21       1.0  0.66102  0.53972  0.87101  1.0000
  H   H22       1.0  0.85771  0.58026  0.08427  1.0000
  C   C34       1.0  0.58170  0.45405  0.95644  1.0000
  C   C35       1.0  0.90880  0.47685  0.06988  1.0000
  C   C36       1.0  0.99155  0.42999  0.02943  1.0000
  H   H23       1.0  0.64229  0.41974  0.91573  1.0000
  H   H24       1.0  0.83898  0.46028  0.12899  1.0000
  O   O35       1.0  0.81071  0.33734  0.09128  1.0000
  O   O36       1.0  0.53485  0.26044  0.05078  1.0000
  O   O37       1.0  0.93929  0.83734  0.40872  1.0000
  C   C37       1.0  0.84119  0.97685  0.43012  1.0000
  O   O38       1.0  0.85404  0.83144  0.67119  1.0000
  O   O39       1.0  0.71515  0.76044  0.44922  1.0000
  P   P13       1.0  0.70954  0.16126  0.54975  1.0000
  O   O40       1.0  0.64595  0.16856  0.32881  1.0000
  O   O41       1.0  0.56071  0.16266  0.59128  1.0000
  O   O42       1.0  0.78485  0.23956  0.55078  1.0000
  C   C38       1.0  0.65881  0.02315  0.56988  1.0000
  C   C39       1.0  0.83170  0.04595  0.45644  1.0000
  C   C40       1.0  0.74156  0.07001  0.52943  1.0000
  H   H25       1.0  0.58898  0.03972  0.62899  1.0000
  H   H26       1.0  0.89229  0.08026  0.41573  1.0000
  C   C41       1.0  0.66830  0.95405  0.54356  1.0000
  C   C42       1.0  0.75845  0.92999  0.47057  1.0000
  H   H27       1.0  0.91102  0.96028  0.37101  1.0000
  H   H28       1.0  0.60771  0.91974  0.58427  1.0000
  P   P14       1.0  0.79046  0.83874  0.45025  1.0000
  C   C43       1.0  0.58170  0.54595  0.45644  1.0000
  C   C44       1.0  0.99155  0.57001  0.52943  1.0000
  H   H29       1.0  0.83898  0.53972  0.62899  1.0000
  H   H30       1.0  0.64229  0.58026  0.41573  1.0000
  C   C45       1.0  0.91830  0.45405  0.54356  1.0000
  C   C46       1.0  0.59119  0.47685  0.43012  1.0000
  C   C47       1.0  0.50844  0.42999  0.47057  1.0000
  H   H31       1.0  0.85771  0.41974  0.58427  1.0000
  H   H32       1.0  0.66102  0.46028  0.37101  1.0000
  O   O43       1.0  0.96515  0.26044  0.44922  1.0000
  O   O44       1.0  0.68930  0.33734  0.40872  1.0000
  O   O45       1.0  0.60404  0.33144  0.67119  1.0000
  P   P15       1.0  0.54046  0.33874  0.45025  1.0000
  P   P16       1.0  0.95954  0.66126  0.54975  1.0000
  O   O46       1.0  0.89596  0.66856  0.32881  1.0000
  O   O47       1.0  0.81071  0.66266  0.59128  1.0000
  O   O48       1.0  0.53485  0.73956  0.55078  1.0000
  C   C48       1.0  0.90880  0.52315  0.56988  1.0000
  Gd  Gd5       1.0  0.75000  0.25624  0.25000  1.0000
  Gd  Gd6       1.0  0.00000  0.75624  0.25000  1.0000
  Gd  Gd7       1.0  0.75000  0.74376  0.75000  1.0000
  Gd  Gd8       1.0  0.50000  0.24376  0.75000  1.0000
