data_image0
_chemical_formula_structural       Zn3O12NC3HCHC2HCHC2HCHC2HCHC4HCHC2HCHC2HCHC2HCHC4HCHC2HCZn3O12NC3HCHC2HCHC2HCHC2HCHC4HCHC2HCHC2HCHC2HCHC4HCHC2HCZn3O12NC3HCHC2HCHC2HCHC2HCHC4HCHC2HCHC2HCHC2HCHC4HCHC2HCZn3O12NC3HCHC2HCHC2HCHC2HCHC4HCHC2HCHC2HCHC2HCHC4HCHC2HC
_chemical_formula_sum              "Zn12 O48 N4 C140 H76"
_cell_length_a       12.0554
_cell_length_b       14.956
_cell_length_c       36.898
_cell_angle_alpha    90
_cell_angle_beta     90
_cell_angle_gamma    90

_space_group_name_H-M_alt    "P 1"
_space_group_IT_number       1

loop_
  _space_group_symop_operation_xyz
  'x, y, z'

loop_
  _atom_site_type_symbol
  _atom_site_label
  _atom_site_symmetry_multiplicity
  _atom_site_fract_x
  _atom_site_fract_y
  _atom_site_fract_z
  _atom_site_occupancy
  Zn  Zn1       1.0  0.05014  0.62965  0.82386  1.0000
  Zn  Zn2       1.0  0.46634  0.24195  0.57642  1.0000
  Zn  Zn3       1.0  0.17654  0.15987  0.60421  1.0000
  O   O1        1.0  0.27060  0.30120  0.60350  1.0000
  O   O2        1.0  0.43190  0.35920  0.59550  1.0000
  O   O3        1.0  0.96070  0.99720  0.67530  1.0000
  O   O4        1.0  0.07910  0.04740  0.63610  1.0000
  O   O5        1.0  0.33710  0.07810  0.61530  1.0000
  O   O6        1.0  0.49610  0.14970  0.61060  1.0000
  O   O7        1.0  0.80450  0.70150  0.83550  1.0000
  O   O8        1.0  0.94450  0.69610  0.79560  1.0000
  O   O9        1.0  0.23570  0.18850  0.54250  1.0000
  O   O10       1.0  0.40860  0.22330  0.52780  1.0000
  O   O11       1.0  0.36490  0.31620  0.36239  1.0000
  O   O12       1.0  0.50350  0.27020  0.39810  1.0000
  N   N1        1.0  0.13240  0.24400  0.43800  1.0000
  C   C1        1.0  0.32670  0.36530  0.60390  1.0000
  C   C2        1.0  0.28800  0.45340  0.61440  1.0000
  C   C3        1.0  0.17790  0.46710  0.62770  1.0000
  H   H1        1.0  0.13200  0.41860  0.63260  1.0000
  C   C4        1.0  0.14090  0.55290  0.63320  1.0000
  H   H2        1.0  0.06680  0.56110  0.63940  1.0000
  C   C5        1.0  0.20650  0.62680  0.63010  1.0000
  C   C6        1.0  0.31170  0.61220  0.61760  1.0000
  H   H3        1.0  0.35680  0.66160  0.61340  1.0000
  C   C7        1.0  0.35510  0.52740  0.61080  1.0000
  H   H4        1.0  0.42890  0.52090  0.60390  1.0000
  C   C8        1.0  0.16020  0.71920  0.63660  1.0000
  C   C9        1.0  0.08040  0.73490  0.66000  1.0000
  H   H5        1.0  0.04840  0.68690  0.67210  1.0000
  C   C10       1.0  0.04150  0.82250  0.66740  1.0000
  H   H6        1.0  0.98880  0.83230  0.68530  1.0000
  C   C11       1.0  0.08250  0.89220  0.64770  1.0000
  C   C12       1.0  0.16700  0.87150  0.62300  1.0000
  H   H7        1.0  0.19640  0.91790  0.60930  1.0000
  C   C13       1.0  0.20740  0.79130  0.61810  1.0000
  H   H8        1.0  0.26690  0.78230  0.60240  1.0000
  C   C14       1.0  0.03860  0.98510  0.65270  1.0000
  C   C15       1.0  0.43740  0.08960  0.62280  1.0000
  C   C16       1.0  0.48890  0.02160  0.64820  1.0000
  C   C17       1.0  0.60690  0.02230  0.65040  1.0000
  H   H9        1.0  0.64970  0.05890  0.63560  1.0000
  C   C18       1.0  0.65410  0.96620  0.67540  1.0000
  H   H10       1.0  0.73110  0.96630  0.67710  1.0000
  C   C19       1.0  0.60010  0.91270  0.69690  1.0000
  C   C20       1.0  0.48190  0.91330  0.69460  1.0000
  H   H11       1.0  0.44050  0.87920  0.71070  1.0000
  C   C21       1.0  0.42930  0.96280  0.66920  1.0000
  H   H12       1.0  0.35310  0.95710  0.66600  1.0000
  C   C22       1.0  0.65810  0.85550  0.72420  1.0000
  C   C23       1.0  0.75180  0.81600  0.71690  1.0000
  H   H13       1.0  0.77770  0.81910  0.69320  1.0000
  C   C24       1.0  0.81510  0.77020  0.74170  1.0000
  H   H14       1.0  0.88250  0.74560  0.73460  1.0000
  C   C25       1.0  0.77870  0.76010  0.77790  1.0000
  C   C26       1.0  0.68150  0.79860  0.78630  1.0000
  H   H15       1.0  0.65610  0.79620  0.81010  1.0000
  C   C27       1.0  0.61540  0.84370  0.75920  1.0000
  H   H16       1.0  0.54490  0.86470  0.76500  1.0000
  C   C28       1.0  0.84600  0.71950  0.80460  1.0000
  C   C29       1.0  0.30730  0.20930  0.52160  1.0000
  C   C30       1.0  0.27580  0.22520  0.48180  1.0000
  C   C31       1.0  0.16410  0.22580  0.47210  1.0000
  H   H17       1.0  0.11070  0.21340  0.48960  1.0000
  C   C32       1.0  0.20870  0.26290  0.41430  1.0000
  H   H18       1.0  0.18530  0.27710  0.39100  1.0000
  C   C33       1.0  0.32480  0.26380  0.42090  1.0000
  C   C34       1.0  0.35460  0.24330  0.45530  1.0000
  H   H19       1.0  0.42950  0.24120  0.46130  1.0000
  C   C35       1.0  0.40290  0.28320  0.39260  1.0000
  Zn  Zn4       1.0  0.44986  0.37035  0.32386  1.0000
  Zn  Zn5       1.0  0.03366  0.75805  0.07642  1.0000
  Zn  Zn6       1.0  0.32346  0.84013  0.10421  1.0000
  O   O13       1.0  0.22940  0.69880  0.10350  1.0000
  O   O14       1.0  0.06810  0.64080  0.09550  1.0000
  O   O15       1.0  0.53930  0.00280  0.17530  1.0000
  O   O16       1.0  0.42090  0.95260  0.13610  1.0000
  O   O17       1.0  0.16290  0.92190  0.11530  1.0000
  O   O18       1.0  0.00390  0.85030  0.11060  1.0000
  O   O19       1.0  0.69550  0.29850  0.33550  1.0000
  O   O20       1.0  0.55550  0.30390  0.29560  1.0000
  O   O21       1.0  0.26430  0.81150  0.04250  1.0000
  O   O22       1.0  0.09140  0.77670  0.02780  1.0000
  O   O23       1.0  0.13510  0.68380  0.86239  1.0000
  O   O24       1.0  0.99650  0.72980  0.89810  1.0000
  N   N2        1.0  0.36760  0.75600  0.93800  1.0000
  C   C36       1.0  0.17330  0.63470  0.10390  1.0000
  C   C37       1.0  0.21200  0.54660  0.11440  1.0000
  C   C38       1.0  0.32210  0.53290  0.12770  1.0000
  H   H20       1.0  0.36800  0.58140  0.13260  1.0000
  C   C39       1.0  0.35910  0.44710  0.13320  1.0000
  H   H21       1.0  0.43320  0.43890  0.13940  1.0000
  C   C40       1.0  0.29350  0.37320  0.13010  1.0000
  C   C41       1.0  0.18830  0.38780  0.11760  1.0000
  H   H22       1.0  0.14320  0.33840  0.11340  1.0000
  C   C42       1.0  0.14490  0.47260  0.11080  1.0000
  H   H23       1.0  0.07110  0.47910  0.10390  1.0000
  C   C43       1.0  0.33980  0.28080  0.13660  1.0000
  C   C44       1.0  0.41960  0.26510  0.16000  1.0000
  H   H24       1.0  0.45160  0.31310  0.17210  1.0000
  C   C45       1.0  0.45850  0.17750  0.16740  1.0000
  H   H25       1.0  0.51120  0.16770  0.18530  1.0000
  C   C46       1.0  0.41750  0.10780  0.14770  1.0000
  C   C47       1.0  0.33300  0.12850  0.12300  1.0000
  H   H26       1.0  0.30360  0.08210  0.10930  1.0000
  C   C48       1.0  0.29260  0.20870  0.11810  1.0000
  H   H27       1.0  0.23310  0.21770  0.10240  1.0000
  C   C49       1.0  0.46140  0.01490  0.15270  1.0000
  C   C50       1.0  0.06260  0.91040  0.12280  1.0000
  C   C51       1.0  0.01110  0.97840  0.14820  1.0000
  C   C52       1.0  0.89310  0.97770  0.15040  1.0000
  H   H28       1.0  0.85030  0.94110  0.13560  1.0000
  C   C53       1.0  0.84590  0.03380  0.17540  1.0000
  H   H29       1.0  0.76890  0.03370  0.17710  1.0000
  C   C54       1.0  0.89990  0.08730  0.19690  1.0000
  C   C55       1.0  0.01810  0.08670  0.19460  1.0000
  H   H30       1.0  0.05950  0.12080  0.21070  1.0000
  C   C56       1.0  0.07070  0.03720  0.16920  1.0000
  H   H31       1.0  0.14690  0.04290  0.16600  1.0000
  C   C57       1.0  0.84190  0.14450  0.22420  1.0000
  C   C58       1.0  0.74820  0.18400  0.21690  1.0000
  H   H32       1.0  0.72230  0.18090  0.19320  1.0000
  C   C59       1.0  0.68490  0.22980  0.24170  1.0000
  H   H33       1.0  0.61750  0.25440  0.23460  1.0000
  C   C60       1.0  0.72130  0.23990  0.27790  1.0000
  C   C61       1.0  0.81850  0.20140  0.28630  1.0000
  H   H34       1.0  0.84390  0.20380  0.31010  1.0000
  C   C62       1.0  0.88460  0.15630  0.25920  1.0000
  H   H35       1.0  0.95510  0.13530  0.26500  1.0000
  C   C63       1.0  0.65400  0.28050  0.30460  1.0000
  C   C64       1.0  0.19270  0.79070  0.02160  1.0000
  C   C65       1.0  0.22420  0.77480  0.98180  1.0000
  C   C66       1.0  0.33590  0.77420  0.97210  1.0000
  H   H36       1.0  0.38930  0.78660  0.98960  1.0000
  C   C67       1.0  0.29130  0.73710  0.91430  1.0000
  H   H37       1.0  0.31470  0.72290  0.89100  1.0000
  C   C68       1.0  0.17520  0.73620  0.92090  1.0000
  C   C69       1.0  0.14540  0.75670  0.95530  1.0000
  H   H38       1.0  0.07050  0.75880  0.96130  1.0000
  C   C70       1.0  0.09710  0.71680  0.89260  1.0000
  Zn  Zn7       1.0  0.94986  0.12965  0.67614  1.0000
  Zn  Zn8       1.0  0.53366  0.74195  0.92358  1.0000
  Zn  Zn9       1.0  0.82346  0.65987  0.89579  1.0000
  O   O25       1.0  0.72940  0.80120  0.89650  1.0000
  O   O26       1.0  0.56810  0.85920  0.90450  1.0000
  O   O27       1.0  0.03930  0.49720  0.82470  1.0000
  O   O28       1.0  0.92090  0.54740  0.86390  1.0000
  O   O29       1.0  0.66290  0.57810  0.88470  1.0000
  O   O30       1.0  0.50390  0.64970  0.88940  1.0000
  O   O31       1.0  0.19550  0.20150  0.66450  1.0000
  O   O32       1.0  0.05550  0.19610  0.70440  1.0000
  O   O33       1.0  0.76430  0.68850  0.95750  1.0000
  O   O34       1.0  0.59140  0.72330  0.97220  1.0000
  O   O35       1.0  0.63510  0.81620  0.13761  1.0000
  O   O36       1.0  0.49650  0.77020  0.10190  1.0000
  N   N3        1.0  0.86760  0.74400  0.06200  1.0000
  C   C71       1.0  0.67330  0.86530  0.89610  1.0000
  C   C72       1.0  0.71200  0.95340  0.88560  1.0000
  C   C73       1.0  0.82210  0.96710  0.87230  1.0000
  H   H39       1.0  0.86800  0.91860  0.86740  1.0000
  C   C74       1.0  0.85910  0.05290  0.86680  1.0000
  H   H40       1.0  0.93320  0.06110  0.86060  1.0000
  C   C75       1.0  0.79350  0.12680  0.86990  1.0000
  C   C76       1.0  0.68830  0.11220  0.88240  1.0000
  H   H41       1.0  0.64320  0.16160  0.88660  1.0000
  C   C77       1.0  0.64490  0.02740  0.88920  1.0000
  H   H42       1.0  0.57110  0.02090  0.89610  1.0000
  C   C78       1.0  0.83980  0.21920  0.86340  1.0000
  C   C79       1.0  0.91960  0.23490  0.84000  1.0000
  H   H43       1.0  0.95160  0.18690  0.82790  1.0000
  C   C80       1.0  0.95850  0.32250  0.83260  1.0000
  H   H44       1.0  0.01120  0.33230  0.81470  1.0000
  C   C81       1.0  0.91750  0.39220  0.85230  1.0000
  C   C82       1.0  0.83300  0.37150  0.87700  1.0000
  H   H45       1.0  0.80360  0.41790  0.89070  1.0000
  C   C83       1.0  0.79260  0.29130  0.88190  1.0000
  H   H46       1.0  0.73310  0.28230  0.89760  1.0000
  C   C84       1.0  0.96140  0.48510  0.84730  1.0000
  C   C85       1.0  0.56260  0.58960  0.87720  1.0000
  C   C86       1.0  0.51110  0.52160  0.85180  1.0000
  C   C87       1.0  0.39310  0.52230  0.84960  1.0000
  H   H47       1.0  0.35030  0.55890  0.86440  1.0000
  C   C88       1.0  0.34590  0.46620  0.82460  1.0000
  H   H48       1.0  0.26890  0.46630  0.82290  1.0000
  C   C89       1.0  0.39990  0.41270  0.80310  1.0000
  C   C90       1.0  0.51810  0.41330  0.80540  1.0000
  H   H49       1.0  0.55950  0.37920  0.78930  1.0000
  C   C91       1.0  0.57070  0.46280  0.83080  1.0000
  H   H50       1.0  0.64690  0.45710  0.83400  1.0000
  C   C92       1.0  0.34190  0.35550  0.77580  1.0000
  C   C93       1.0  0.24820  0.31600  0.78310  1.0000
  H   H51       1.0  0.22230  0.31910  0.80680  1.0000
  C   C94       1.0  0.18490  0.27020  0.75830  1.0000
  H   H52       1.0  0.11750  0.24560  0.76540  1.0000
  C   C95       1.0  0.22130  0.26010  0.72210  1.0000
  C   C96       1.0  0.31850  0.29860  0.71370  1.0000
  H   H53       1.0  0.34390  0.29620  0.68990  1.0000
  C   C97       1.0  0.38460  0.34370  0.74080  1.0000
  H   H54       1.0  0.45510  0.36470  0.73500  1.0000
  C   C98       1.0  0.15400  0.21950  0.69540  1.0000
  C   C99       1.0  0.69270  0.70930  0.97840  1.0000
  C   C100      1.0  0.72420  0.72520  0.01820  1.0000
  C   C101      1.0  0.83590  0.72580  0.02790  1.0000
  H   H55       1.0  0.88930  0.71340  0.01040  1.0000
  C   C102      1.0  0.79130  0.76290  0.08570  1.0000
  H   H56       1.0  0.81470  0.77710  0.10900  1.0000
  C   C103      1.0  0.67520  0.76380  0.07910  1.0000
  C   C104      1.0  0.64540  0.74330  0.04470  1.0000
  H   H57       1.0  0.57050  0.74120  0.03870  1.0000
  C   C105      1.0  0.59710  0.78320  0.10740  1.0000
  Zn  Zn10      1.0  0.55014  0.87035  0.17614  1.0000
  Zn  Zn11      1.0  0.96634  0.25805  0.42358  1.0000
  Zn  Zn12      1.0  0.67654  0.34013  0.39579  1.0000
  O   O37       1.0  0.77060  0.19880  0.39650  1.0000
  O   O38       1.0  0.93190  0.14080  0.40450  1.0000
  O   O39       1.0  0.46070  0.50280  0.32470  1.0000
  O   O40       1.0  0.57910  0.45260  0.36390  1.0000
  O   O41       1.0  0.83710  0.42190  0.38470  1.0000
  O   O42       1.0  0.99610  0.35030  0.38940  1.0000
  O   O43       1.0  0.30450  0.79850  0.16450  1.0000
  O   O44       1.0  0.44450  0.80390  0.20440  1.0000
  O   O45       1.0  0.73570  0.31150  0.45750  1.0000
  O   O46       1.0  0.90860  0.27670  0.47220  1.0000
  O   O47       1.0  0.86490  0.18380  0.63761  1.0000
  O   O48       1.0  0.00350  0.22980  0.60190  1.0000
  N   N4        1.0  0.63240  0.25600  0.56200  1.0000
  C   C106      1.0  0.82670  0.13470  0.39610  1.0000
  C   C107      1.0  0.78800  0.04660  0.38560  1.0000
  C   C108      1.0  0.67790  0.03290  0.37230  1.0000
  H   H58       1.0  0.63200  0.08140  0.36740  1.0000
  C   C109      1.0  0.64090  0.94710  0.36680  1.0000
  H   H59       1.0  0.56680  0.93890  0.36060  1.0000
  C   C110      1.0  0.70650  0.87320  0.36990  1.0000
  C   C111      1.0  0.81170  0.88780  0.38240  1.0000
  H   H60       1.0  0.85680  0.83840  0.38660  1.0000
  C   C112      1.0  0.85510  0.97260  0.38920  1.0000
  H   H61       1.0  0.92890  0.97910  0.39610  1.0000
  C   C113      1.0  0.66020  0.78080  0.36340  1.0000
  C   C114      1.0  0.58040  0.76510  0.34000  1.0000
  H   H62       1.0  0.54840  0.81310  0.32790  1.0000
  C   C115      1.0  0.54150  0.67750  0.33260  1.0000
  H   H63       1.0  0.48880  0.66770  0.31470  1.0000
  C   C116      1.0  0.58250  0.60780  0.35230  1.0000
  C   C117      1.0  0.66700  0.62850  0.37700  1.0000
  H   H64       1.0  0.69640  0.58210  0.39070  1.0000
  C   C118      1.0  0.70740  0.70870  0.38190  1.0000
  H   H65       1.0  0.76690  0.71770  0.39760  1.0000
  C   C119      1.0  0.53860  0.51490  0.34730  1.0000
  C   C120      1.0  0.93740  0.41040  0.37720  1.0000
  C   C121      1.0  0.98890  0.47840  0.35180  1.0000
  C   C122      1.0  0.10690  0.47770  0.34960  1.0000
  H   H66       1.0  0.14970  0.44110  0.36440  1.0000
  C   C123      1.0  0.15410  0.53380  0.32460  1.0000
  H   H67       1.0  0.23110  0.53370  0.32290  1.0000
  C   C124      1.0  0.10010  0.58730  0.30310  1.0000
  C   C125      1.0  0.98190  0.58670  0.30540  1.0000
  H   H68       1.0  0.94050  0.62080  0.28930  1.0000
  C   C126      1.0  0.92930  0.53720  0.33080  1.0000
  H   H69       1.0  0.85310  0.54290  0.33400  1.0000
  C   C127      1.0  0.15810  0.64450  0.27580  1.0000
  C   C128      1.0  0.25180  0.68400  0.28310  1.0000
  H   H70       1.0  0.27770  0.68090  0.30680  1.0000
  C   C129      1.0  0.31510  0.72980  0.25830  1.0000
  H   H71       1.0  0.38250  0.75440  0.26540  1.0000
  C   C130      1.0  0.27870  0.73990  0.22210  1.0000
  C   C131      1.0  0.18150  0.70140  0.21370  1.0000
  H   H72       1.0  0.15610  0.70380  0.18990  1.0000
  C   C132      1.0  0.11540  0.65630  0.24080  1.0000
  H   H73       1.0  0.04490  0.63530  0.23500  1.0000
  C   C133      1.0  0.34600  0.78050  0.19540  1.0000
  C   C134      1.0  0.80730  0.29070  0.47840  1.0000
  C   C135      1.0  0.77580  0.27480  0.51820  1.0000
  C   C136      1.0  0.66410  0.27420  0.52790  1.0000
  H   H74       1.0  0.61070  0.28660  0.51040  1.0000
  C   C137      1.0  0.70870  0.23710  0.58570  1.0000
  H   H75       1.0  0.68530  0.22290  0.60900  1.0000
  C   C138      1.0  0.82480  0.23620  0.57910  1.0000
  C   C139      1.0  0.85460  0.25670  0.54470  1.0000
  H   H76       1.0  0.92950  0.25880  0.53870  1.0000
  C   C140      1.0  0.90290  0.21680  0.60740  1.0000
