data_image0
_chemical_formula_structural       O2NCOCHCOCHC3HCHC2HC4HCHCHC3HCHCHF2C2HCHC2HC2HCHO2NCOCHCOCHC3HCHC2HC4HCHCHC3HCHCHF2C2HCHC2HC2HCHO2NCOCHCOCHC3HCHC2HC4HCHCHC3HCHCHF2C2HCHC2HC2HCHO2NCOCHCOCHC3HCHC2HC4HCHCHC3HCHCHF2C2HCHC2HC2HCHZn4
_chemical_formula_sum              "O16 N4 C116 H64 F8 Zn4"
_cell_length_a       21.6596
_cell_length_b       10.1234
_cell_length_c       15.4018
_cell_angle_alpha    90
_cell_angle_beta     98.644
_cell_angle_gamma    90

_space_group_name_H-M_alt    "P 1"
_space_group_IT_number       1

loop_
  _space_group_symop_operation_xyz
  'x, y, z'

loop_
  _atom_site_type_symbol
  _atom_site_label
  _atom_site_symmetry_multiplicity
  _atom_site_fract_x
  _atom_site_fract_y
  _atom_site_fract_z
  _atom_site_occupancy
  O   O1        1.0  0.03169  0.59318  0.56720  1.0000
  O   O2        1.0  0.04750  0.39465  0.62390  1.0000
  N   N1        1.0  0.49638  0.82520  0.85606  1.0000
  C   C1        1.0  0.49930  0.91330  0.92976  1.0000
  O   O3        1.0  0.91492  0.41410  0.68575  1.0000
  C   C2        1.0  0.54990  0.76220  0.73459  1.0000
  H   H1        1.0  0.51180  0.76920  0.69530  1.0000
  C   C3        1.0  0.66064  0.71230  0.75863  1.0000
  O   O4        1.0  0.88380  0.48810  0.55515  1.0000
  C   C4        1.0  0.53224  0.03250  0.93085  1.0000
  H   H2        1.0  0.55400  0.05520  0.88380  1.0000
  C   C5        1.0  0.43740  0.77560  0.82014  1.0000
  C   C6        1.0  0.55115  0.79070  0.82291  1.0000
  C   C7        1.0  0.46757  0.88300  0.99804  1.0000
  H   H3        1.0  0.44500  0.80240  0.99660  1.0000
  C   C8        1.0  0.42814  0.64230  0.79633  1.0000
  H   H4        1.0  0.46270  0.58350  0.80240  1.0000
  C   C9        1.0  0.06594  0.50920  0.61098  1.0000
  C   C10       1.0  0.60396  0.72340  0.70331  1.0000
  H   H5        1.0  0.60220  0.70410  0.64260  1.0000
  C   C11       1.0  0.13029  0.54960  0.65032  1.0000
  C   C12       1.0  0.31670  0.67920  0.75425  1.0000
  C   C13       1.0  0.71773  0.66280  0.72595  1.0000
  C   C14       1.0  0.36911  0.59620  0.76408  1.0000
  H   H6        1.0  0.36390  0.50580  0.74810  1.0000
  C   C15       1.0  0.66166  0.74550  0.84628  1.0000
  H   H7        1.0  0.70020  0.74190  0.88500  1.0000
  C   C16       1.0  0.60892  0.78320  0.87863  1.0000
  H   H8        1.0  0.61120  0.80440  0.93910  1.0000
  C   C17       1.0  0.82386  0.55160  0.66480  1.0000
  C   C18       1.0  0.25288  0.63260  0.71787  1.0000
  C   C19       1.0  0.38533  0.85760  0.81040  1.0000
  H   H9        1.0  0.39020  0.94800  0.82630  1.0000
  C   C20       1.0  0.32755  0.81060  0.77850  1.0000
  H   H10       1.0  0.29320  0.86990  0.77250  1.0000
  C   C21       1.0  0.76453  0.59660  0.78276  1.0000
  H   H11       1.0  0.76060  0.58660  0.84300  1.0000
  F   F1        1.0  0.15895  0.34010  0.70990  1.0000
  F   F2        1.0  0.78314  0.64150  0.52685  1.0000
  C   C22       1.0  0.17504  0.46390  0.69500  1.0000
  C   C23       1.0  0.14964  0.67980  0.64328  1.0000
  H   H12       1.0  0.12070  0.74280  0.61550  1.0000
  C   C24       1.0  0.20907  0.71980  0.67516  1.0000
  H   H13       1.0  0.22060  0.80920  0.66790  1.0000
  C   C25       1.0  0.77870  0.62140  0.61020  1.0000
  C   C26       1.0  0.81609  0.54610  0.75155  1.0000
  H   H14       1.0  0.84780  0.50540  0.79210  1.0000
  C   C27       1.0  0.87834  0.47930  0.63370  1.0000
  C   C28       1.0  0.72631  0.67550  0.63994  1.0000
  H   H15       1.0  0.69620  0.72170  0.60000  1.0000
  C   C29       1.0  0.23413  0.50370  0.72840  1.0000
  H   H16       1.0  0.26260  0.44230  0.75920  1.0000
  O   O5        1.0  0.96831  0.40682  0.43280  1.0000
  O   O6        1.0  0.95250  0.60535  0.37610  1.0000
  N   N2        1.0  0.50362  0.17480  0.14394  1.0000
  C   C30       1.0  0.50070  0.08670  0.07024  1.0000
  O   O7        1.0  0.08508  0.58590  0.31425  1.0000
  C   C31       1.0  0.45010  0.23780  0.26541  1.0000
  H   H17       1.0  0.48820  0.23080  0.30470  1.0000
  C   C32       1.0  0.33936  0.28770  0.24137  1.0000
  O   O8        1.0  0.11620  0.51190  0.44485  1.0000
  C   C33       1.0  0.46776  0.96750  0.06915  1.0000
  H   H18       1.0  0.44600  0.94480  0.11620  1.0000
  C   C34       1.0  0.56260  0.22440  0.17986  1.0000
  C   C35       1.0  0.44885  0.20930  0.17709  1.0000
  C   C36       1.0  0.53243  0.11700  0.00196  1.0000
  H   H19       1.0  0.55500  0.19760  0.00340  1.0000
  C   C37       1.0  0.57186  0.35770  0.20367  1.0000
  H   H20       1.0  0.53730  0.41650  0.19760  1.0000
  C   C38       1.0  0.93406  0.49080  0.38902  1.0000
  C   C39       1.0  0.39604  0.27660  0.29669  1.0000
  H   H21       1.0  0.39780  0.29590  0.35740  1.0000
  C   C40       1.0  0.86971  0.45040  0.34968  1.0000
  C   C41       1.0  0.68330  0.32080  0.24575  1.0000
  C   C42       1.0  0.28227  0.33720  0.27405  1.0000
  C   C43       1.0  0.63089  0.40380  0.23592  1.0000
  H   H22       1.0  0.63610  0.49420  0.25190  1.0000
  C   C44       1.0  0.33834  0.25450  0.15372  1.0000
  H   H23       1.0  0.29980  0.25810  0.11500  1.0000
  C   C45       1.0  0.39108  0.21680  0.12137  1.0000
  H   H24       1.0  0.38880  0.19560  0.06090  1.0000
  C   C46       1.0  0.17614  0.44840  0.33520  1.0000
  C   C47       1.0  0.74712  0.36740  0.28213  1.0000
  C   C48       1.0  0.61467  0.14240  0.18960  1.0000
  H   H25       1.0  0.60980  0.05200  0.17370  1.0000
  C   C49       1.0  0.67245  0.18940  0.22150  1.0000
  H   H26       1.0  0.70680  0.13010  0.22750  1.0000
  C   C50       1.0  0.23547  0.40340  0.21724  1.0000
  H   H27       1.0  0.23940  0.41340  0.15700  1.0000
  F   F3        1.0  0.84105  0.65990  0.29010  1.0000
  F   F4        1.0  0.21686  0.35850  0.47315  1.0000
  C   C51       1.0  0.82496  0.53610  0.30500  1.0000
  C   C52       1.0  0.85036  0.32020  0.35672  1.0000
  H   H28       1.0  0.87930  0.25720  0.38450  1.0000
  C   C53       1.0  0.79093  0.28020  0.32484  1.0000
  H   H29       1.0  0.77940  0.19080  0.33210  1.0000
  C   C54       1.0  0.22130  0.37860  0.38980  1.0000
  C   C55       1.0  0.18391  0.45390  0.24845  1.0000
  H   H30       1.0  0.15220  0.49460  0.20790  1.0000
  C   C56       1.0  0.12166  0.52070  0.36630  1.0000
  C   C57       1.0  0.27369  0.32450  0.36006  1.0000
  H   H31       1.0  0.30380  0.27830  0.40000  1.0000
  C   C58       1.0  0.76587  0.49630  0.27160  1.0000
  H   H32       1.0  0.73740  0.55770  0.24080  1.0000
  O   O9        1.0  0.96831  0.09318  0.93280  1.0000
  O   O10       1.0  0.95250  0.89465  0.87610  1.0000
  N   N3        1.0  0.50362  0.32520  0.64394  1.0000
  C   C59       1.0  0.50070  0.41330  0.57024  1.0000
  O   O11       1.0  0.08508  0.91410  0.81425  1.0000
  C   C60       1.0  0.45010  0.26220  0.76541  1.0000
  H   H33       1.0  0.48820  0.26920  0.80470  1.0000
  C   C61       1.0  0.33936  0.21230  0.74137  1.0000
  O   O12       1.0  0.11620  0.98810  0.94485  1.0000
  C   C62       1.0  0.46776  0.53250  0.56915  1.0000
  H   H34       1.0  0.44600  0.55520  0.61620  1.0000
  C   C63       1.0  0.56260  0.27560  0.67986  1.0000
  C   C64       1.0  0.44885  0.29070  0.67709  1.0000
  C   C65       1.0  0.53243  0.38300  0.50196  1.0000
  H   H35       1.0  0.55500  0.30240  0.50340  1.0000
  C   C66       1.0  0.57186  0.14230  0.70367  1.0000
  H   H36       1.0  0.53730  0.08350  0.69760  1.0000
  C   C67       1.0  0.93406  0.00920  0.88902  1.0000
  C   C68       1.0  0.39604  0.22340  0.79669  1.0000
  H   H37       1.0  0.39780  0.20410  0.85740  1.0000
  C   C69       1.0  0.86971  0.04960  0.84968  1.0000
  C   C70       1.0  0.68330  0.17920  0.74575  1.0000
  C   C71       1.0  0.28227  0.16280  0.77405  1.0000
  C   C72       1.0  0.63089  0.09620  0.73592  1.0000
  H   H38       1.0  0.63610  0.00580  0.75190  1.0000
  C   C73       1.0  0.33834  0.24550  0.65372  1.0000
  H   H39       1.0  0.29980  0.24190  0.61500  1.0000
  C   C74       1.0  0.39108  0.28320  0.62137  1.0000
  H   H40       1.0  0.38880  0.30440  0.56090  1.0000
  C   C75       1.0  0.17614  0.05160  0.83520  1.0000
  C   C76       1.0  0.74712  0.13260  0.78213  1.0000
  C   C77       1.0  0.61467  0.35760  0.68960  1.0000
  H   H41       1.0  0.60980  0.44800  0.67370  1.0000
  C   C78       1.0  0.67245  0.31060  0.72150  1.0000
  H   H42       1.0  0.70680  0.36990  0.72750  1.0000
  C   C79       1.0  0.23547  0.09660  0.71724  1.0000
  H   H43       1.0  0.23940  0.08660  0.65700  1.0000
  F   F5        1.0  0.84105  0.84010  0.79010  1.0000
  F   F6        1.0  0.21686  0.14150  0.97315  1.0000
  C   C80       1.0  0.82496  0.96390  0.80500  1.0000
  C   C81       1.0  0.85036  0.17980  0.85672  1.0000
  H   H44       1.0  0.87930  0.24280  0.88450  1.0000
  C   C82       1.0  0.79093  0.21980  0.82484  1.0000
  H   H45       1.0  0.77940  0.30920  0.83210  1.0000
  C   C83       1.0  0.22130  0.12140  0.88980  1.0000
  C   C84       1.0  0.18391  0.04610  0.74845  1.0000
  H   H46       1.0  0.15220  0.00540  0.70790  1.0000
  C   C85       1.0  0.12166  0.97930  0.86630  1.0000
  C   C86       1.0  0.27369  0.17550  0.86006  1.0000
  H   H47       1.0  0.30380  0.22170  0.90000  1.0000
  C   C87       1.0  0.76587  0.00370  0.77160  1.0000
  H   H48       1.0  0.73740  0.94230  0.74080  1.0000
  O   O13       1.0  0.03169  0.90682  0.06720  1.0000
  O   O14       1.0  0.04750  0.10535  0.12390  1.0000
  N   N4        1.0  0.49638  0.67480  0.35606  1.0000
  C   C88       1.0  0.49930  0.58670  0.42976  1.0000
  O   O15       1.0  0.91492  0.08590  0.18575  1.0000
  C   C89       1.0  0.54990  0.73780  0.23459  1.0000
  H   H49       1.0  0.51180  0.73080  0.19530  1.0000
  C   C90       1.0  0.66064  0.78770  0.25863  1.0000
  O   O16       1.0  0.88380  0.01190  0.05515  1.0000
  C   C91       1.0  0.53224  0.46750  0.43085  1.0000
  H   H50       1.0  0.55400  0.44480  0.38380  1.0000
  C   C92       1.0  0.43740  0.72440  0.32014  1.0000
  C   C93       1.0  0.55115  0.70930  0.32291  1.0000
  C   C94       1.0  0.46757  0.61700  0.49804  1.0000
  H   H51       1.0  0.44500  0.69760  0.49660  1.0000
  C   C95       1.0  0.42814  0.85770  0.29633  1.0000
  H   H52       1.0  0.46270  0.91650  0.30240  1.0000
  C   C96       1.0  0.06594  0.99080  0.11098  1.0000
  C   C97       1.0  0.60396  0.77660  0.20331  1.0000
  H   H53       1.0  0.60220  0.79590  0.14260  1.0000
  C   C98       1.0  0.13029  0.95040  0.15032  1.0000
  C   C99       1.0  0.31670  0.82080  0.25425  1.0000
  C   C100      1.0  0.71773  0.83720  0.22595  1.0000
  C   C101      1.0  0.36911  0.90380  0.26408  1.0000
  H   H54       1.0  0.36390  0.99420  0.24810  1.0000
  C   C102      1.0  0.66166  0.75450  0.34628  1.0000
  H   H55       1.0  0.70020  0.75810  0.38500  1.0000
  C   C103      1.0  0.60892  0.71680  0.37863  1.0000
  H   H56       1.0  0.61120  0.69560  0.43910  1.0000
  C   C104      1.0  0.82386  0.94840  0.16480  1.0000
  C   C105      1.0  0.25288  0.86740  0.21787  1.0000
  C   C106      1.0  0.38533  0.64240  0.31040  1.0000
  H   H57       1.0  0.39020  0.55200  0.32630  1.0000
  C   C107      1.0  0.32755  0.68940  0.27850  1.0000
  H   H58       1.0  0.29320  0.63010  0.27250  1.0000
  C   C108      1.0  0.76453  0.90340  0.28276  1.0000
  H   H59       1.0  0.76060  0.91340  0.34300  1.0000
  F   F7        1.0  0.15895  0.15990  0.20990  1.0000
  F   F8        1.0  0.78314  0.85850  0.02685  1.0000
  C   C109      1.0  0.17504  0.03610  0.19500  1.0000
  C   C110      1.0  0.14964  0.82020  0.14328  1.0000
  H   H60       1.0  0.12070  0.75720  0.11550  1.0000
  C   C111      1.0  0.20907  0.78020  0.17516  1.0000
  H   H61       1.0  0.22060  0.69080  0.16790  1.0000
  C   C112      1.0  0.77870  0.87860  0.11020  1.0000
  C   C113      1.0  0.81609  0.95390  0.25155  1.0000
  H   H62       1.0  0.84780  0.99460  0.29210  1.0000
  C   C114      1.0  0.87834  0.02070  0.13370  1.0000
  C   C115      1.0  0.72631  0.82450  0.13994  1.0000
  H   H63       1.0  0.69620  0.77830  0.10000  1.0000
  C   C116      1.0  0.23413  0.99630  0.22840  1.0000
  H   H64       1.0  0.26260  0.05770  0.25920  1.0000
  Zn  Zn1       1.0  0.96125  0.37413  0.56044  1.0000
  Zn  Zn2       1.0  0.96125  0.12587  0.06044  1.0000
  Zn  Zn3       1.0  0.03875  0.87413  0.93956  1.0000
  Zn  Zn4       1.0  0.03875  0.62587  0.43956  1.0000
