data_image0
_chemical_formula_structural       OCHOCHC2OCHOCHC4OCHOCHC2OCHOCHOCHOCHC3HO2CHC3HC2OCHOCHC2OCHO2CHOCHC2OCHOCHC2HOCHC2OCHOCHC2OCFe6O2
_chemical_formula_sum              "O26 C48 H24 Fe6"
_cell_length_a       16.3527
_cell_length_b       16.3527
_cell_length_c       15.535
_cell_angle_alpha    90
_cell_angle_beta     90
_cell_angle_gamma    120

_space_group_name_H-M_alt    "P 1"
_space_group_IT_number       1

loop_
  _space_group_symop_operation_xyz
  'x, y, z'

loop_
  _atom_site_type_symbol
  _atom_site_label
  _atom_site_symmetry_multiplicity
  _atom_site_fract_x
  _atom_site_fract_y
  _atom_site_fract_z
  _atom_site_occupancy
  O   O1        1.0  0.34212  0.52165  0.66596  1.0000
  C   C1        1.0  0.40827  0.44460  0.53542  1.0000
  H   H1        1.0  0.33699  0.39948  0.55856  1.0000
  O   O2        1.0  0.65782  0.47881  0.34202  1.0000
  C   C2        1.0  0.59171  0.55591  0.47261  1.0000
  H   H2        1.0  0.66297  0.60100  0.44941  1.0000
  C   C3        1.0  0.46313  0.53712  0.56804  1.0000
  C   C4        1.0  0.42542  0.57480  0.63728  1.0000
  O   O3        1.0  0.52142  0.34233  0.34212  1.0000
  C   C5        1.0  0.44438  0.40850  0.47270  1.0000
  H   H3        1.0  0.39932  0.33721  0.44959  1.0000
  O   O4        1.0  0.47856  0.65809  0.66599  1.0000
  C   C6        1.0  0.55562  0.59201  0.53536  1.0000
  H   H4        1.0  0.60068  0.66330  0.55850  1.0000
  C   C7        1.0  0.53686  0.46338  0.44001  1.0000
  C   C8        1.0  0.57455  0.42566  0.37076  1.0000
  C   C9        1.0  0.53686  0.07396  0.43999  1.0000
  C   C10       1.0  0.57454  0.14934  0.37073  1.0000
  O   O5        1.0  0.47858  0.82096  0.66603  1.0000
  C   C11       1.0  0.55567  0.96421  0.53544  1.0000
  H   H5        1.0  0.60078  0.93807  0.55866  1.0000
  O   O6        1.0  0.52138  0.17946  0.34201  1.0000
  C   C12       1.0  0.44437  0.03630  0.47263  1.0000
  H   H6        1.0  0.39927  0.06246  0.44946  1.0000
  C   C13       1.0  0.46316  0.92653  0.56807  1.0000
  C   C14       1.0  0.42544  0.85113  0.63732  1.0000
  O   O7        1.0  0.65786  0.17954  0.34208  1.0000
  C   C15       1.0  0.59174  0.03638  0.47269  1.0000
  H   H7        1.0  0.66301  0.06258  0.44957  1.0000
  O   O8        1.0  0.34213  0.82095  0.66599  1.0000
  C   C16       1.0  0.40830  0.96416  0.53540  1.0000
  H   H8        1.0  0.33704  0.93803  0.55854  1.0000
  O   O9        1.0  0.17924  0.65809  0.66599  1.0000
  C   C17       1.0  0.03587  0.59187  0.53557  1.0000
  H   H9        1.0  0.06206  0.66315  0.55877  1.0000
  O   O10       1.0  0.82070  0.34237  0.34205  1.0000
  C   C18       1.0  0.96395  0.40853  0.47258  1.0000
  H   H10       1.0  0.93784  0.33731  0.44932  1.0000
  C   C19       1.0  0.07367  0.53708  0.56805  1.0000
  C   C20       1.0  0.14908  0.57480  0.63727  1.0000
  C   C21       1.0  0.96368  0.55577  0.47286  1.0000
  H   H11       1.0  0.93722  0.60074  0.44995  1.0000
  O   O11       1.0  0.82066  0.47878  0.34209  1.0000
  O   O12       1.0  0.17927  0.52167  0.66594  1.0000
  C   C22       1.0  0.03615  0.44462  0.53531  1.0000
  H   H12       1.0  0.06245  0.39958  0.55835  1.0000
  C   C23       1.0  0.92619  0.46334  0.44006  1.0000
  C   C24       1.0  0.85082  0.42565  0.37079  1.0000
  C   C25       1.0  0.44429  0.40852  0.03546  1.0000
  H   H13       1.0  0.39919  0.33726  0.05866  1.0000
  C   C26       1.0  0.46307  0.53708  0.94004  1.0000
  C   C27       1.0  0.42538  0.57476  0.87077  1.0000
  O   O13       1.0  0.65785  0.47880  0.16598  1.0000
  C   C28       1.0  0.59173  0.55587  0.03538  1.0000
  H   H14       1.0  0.66305  0.60098  0.05847  1.0000
  O   O14       1.0  0.34209  0.52162  0.84205  1.0000
  C   C29       1.0  0.40819  0.44458  0.97270  1.0000
  H   H15       1.0  0.33690  0.39948  0.94953  1.0000
  C   C30       1.0  0.53682  0.46338  0.06808  1.0000
  C   C31       1.0  0.57453  0.42568  0.13731  1.0000
  O   O15       1.0  0.47853  0.65805  0.84207  1.0000
  C   C32       1.0  0.55561  0.59194  0.97266  1.0000
  H   H16       1.0  0.60070  0.66320  0.94944  1.0000
  O   O16       1.0  0.52138  0.34240  0.16603  1.0000
  O   O17       1.0  0.34215  0.82096  0.84206  1.0000
  C   C33       1.0  0.40827  0.96420  0.97260  1.0000
  H   H17       1.0  0.33702  0.93805  0.94936  1.0000
  O   O18       1.0  0.65779  0.17947  0.16602  1.0000
  C   C34       1.0  0.59167  0.03629  0.03545  1.0000
  H   H18       1.0  0.66293  0.06244  0.05864  1.0000
  C   C35       1.0  0.46313  0.92653  0.94000  1.0000
  C   C36       1.0  0.42544  0.85113  0.87076  1.0000
  O   O19       1.0  0.52138  0.17952  0.16597  1.0000
  C   C37       1.0  0.44431  0.03634  0.03538  1.0000
  H   H19       1.0  0.39922  0.06254  0.05854  1.0000
  O   O20       1.0  0.47857  0.82094  0.84210  1.0000
  C   C38       1.0  0.55561  0.96411  0.97271  1.0000
  H   H20       1.0  0.60072  0.93792  0.94958  1.0000
  C   C39       1.0  0.53680  0.07394  0.06806  1.0000
  C   C40       1.0  0.57450  0.14933  0.13731  1.0000
  H   H21       1.0  0.06222  0.39947  0.94942  1.0000
  O   O21       1.0  0.82072  0.47879  0.16602  1.0000
  C   C41       1.0  0.96395  0.55587  0.03546  1.0000
  H   H22       1.0  0.93773  0.60094  0.05864  1.0000
  C   C42       1.0  0.07374  0.53710  0.94003  1.0000
  C   C43       1.0  0.14911  0.57479  0.87076  1.0000
  O   O22       1.0  0.82064  0.34232  0.16595  1.0000
  C   C44       1.0  0.96387  0.40846  0.03538  1.0000
  H   H23       1.0  0.93766  0.33715  0.05849  1.0000
  O   O23       1.0  0.17930  0.65810  0.84208  1.0000
  C   C45       1.0  0.03614  0.59198  0.97273  1.0000
  H   H24       1.0  0.06239  0.66330  0.94965  1.0000
  C   C46       1.0  0.92626  0.46334  0.06806  1.0000
  C   C47       1.0  0.85085  0.42564  0.13730  1.0000
  O   O24       1.0  0.17924  0.52164  0.84203  1.0000
  C   C48       1.0  0.03606  0.44456  0.97263  1.0000
  Fe  Fe1       1.0  0.26416  0.52859  0.75399  1.0000
  Fe  Fe2       1.0  0.47162  0.73604  0.75404  1.0000
  Fe  Fe3       1.0  0.26417  0.73605  0.75402  1.0000
  Fe  Fe4       1.0  0.73579  0.47185  0.25402  1.0000
  Fe  Fe5       1.0  0.52833  0.26440  0.25403  1.0000
  Fe  Fe6       1.0  0.73578  0.26440  0.25402  1.0000
  O   O25       1.0  0.33332  0.66691  0.75402  1.0000
  O   O26       1.0  0.66663  0.33356  0.25402  1.0000
