data_image0
_chemical_formula_structural       OCHOCH2C2OCOC3HCHCHOCOCHC2HOCOC2HOCHCOHC2HOCOC2OCOCHC2HOCOC3H2OC3H3OCOCHC2OCHOCOCHC2HCO2C3Fe6O2
_chemical_formula_sum              "O26 C48 H23 Fe6"
_cell_length_a       11.6165
_cell_length_b       11.6165
_cell_length_c       18.8267
_cell_angle_alpha    90
_cell_angle_beta     90
_cell_angle_gamma    120

_space_group_name_H-M_alt    "P 1"
_space_group_IT_number       1

loop_
  _space_group_symop_operation_xyz
  'x, y, z'

loop_
  _atom_site_type_symbol
  _atom_site_label
  _atom_site_symmetry_multiplicity
  _atom_site_fract_x
  _atom_site_fract_y
  _atom_site_fract_z
  _atom_site_occupancy
  O   O1        1.0  0.65294  0.54475  0.18868  1.0000
  C   C1        1.0  0.61882  0.60634  0.04222  1.0000
  H   H1        1.0  0.70523  0.68296  0.06962  1.0000
  O   O2        1.0  0.35269  0.46741  0.82718  1.0000
  C   C2        1.0  0.40041  0.40966  0.96732  1.0000
  H   H2        1.0  0.34923  0.29766  0.06364  1.0000
  H   H3        1.0  0.66883  0.71857  0.94525  1.0000
  C   C3        1.0  0.55640  0.45740  0.15131  1.0000
  C   C4        1.0  0.52940  0.48855  0.07780  1.0000
  O   O3        1.0  0.53542  0.66737  0.83108  1.0000
  C   C5        1.0  0.59895  0.62550  0.97029  1.0000
  O   O4        1.0  0.48248  0.33944  0.17271  1.0000
  C   C6        1.0  0.42004  0.39071  0.03891  1.0000
  C   C7        1.0  0.45849  0.55438  0.85809  1.0000
  C   C8        1.0  0.48947  0.52714  0.93156  1.0000
  H   H4        1.0  0.31375  0.33253  0.94030  1.0000
  C   C9        1.0  0.56158  0.46035  0.35783  1.0000
  H   H5        1.0  0.67869  0.69741  0.57127  1.0000
  C   C10       1.0  0.52906  0.48539  0.43154  1.0000
  H   H6        1.0  0.33483  0.30864  0.43757  1.0000
  O   O5        1.0  0.34189  0.46777  0.67807  1.0000
  C   C11       1.0  0.38811  0.41199  0.53772  1.0000
  O   O6        1.0  0.68000  0.53161  0.33691  1.0000
  C   C12       1.0  0.62514  0.59376  0.47166  1.0000
  H   H7        1.0  0.71885  0.66540  0.44783  1.0000
  C   C13       1.0  0.45350  0.54867  0.65120  1.0000
  C   C14       1.0  0.48434  0.52070  0.57771  1.0000
  H   H8        1.0  0.29427  0.34093  0.56164  1.0000
  O   O7        1.0  0.47381  0.36754  0.31935  1.0000
  C   C15       1.0  0.41019  0.39453  0.46588  1.0000
  O   O8        1.0  0.53605  0.65562  0.68244  1.0000
  C   C16       1.0  0.60303  0.61133  0.54322  1.0000
  C   C17       1.0  0.47855  0.96450  0.93091  1.0000
  H   H9        1.0  0.67324  0.98242  0.93616  1.0000
  O   O9        1.0  0.47384  0.11567  0.18709  1.0000
  C   C18       1.0  0.40794  0.02002  0.04266  1.0000
  H   H10       1.0  0.33336  0.03135  0.07129  1.0000
  C   C19       1.0  0.59840  0.99371  0.96454  1.0000
  O   O10       1.0  0.53097  0.88455  0.82545  1.0000
  H   H11       1.0  0.71664  0.05722  0.05908  1.0000
  C   C20       1.0  0.56098  0.10612  0.14988  1.0000
  C   C21       1.0  0.52756  0.04835  0.07630  1.0000
  H   H12       1.0  0.28930  0.95525  0.94787  1.0000
  O   O11       1.0  0.33067  0.86481  0.83327  1.0000
  C   C22       1.0  0.38367  0.97841  0.97123  1.0000
  O   O12       1.0  0.67859  0.14846  0.17195  1.0000
  C   C23       1.0  0.62250  0.03500  0.03580  1.0000
  C   C24       1.0  0.44572  0.90320  0.85809  1.0000
  O   O13       1.0  0.63848  0.10636  0.31887  1.0000
  C   C25       1.0  0.60501  0.01362  0.46618  1.0000
  O   O14       1.0  0.33896  0.87723  0.68326  1.0000
  C   C26       1.0  0.38444  0.98719  0.54093  1.0000
  H   H13       1.0  0.29709  0.97595  0.56794  1.0000
  C   C27       1.0  0.51579  0.04210  0.43041  1.0000
  C   C28       1.0  0.54479  0.10166  0.35670  1.0000
  H   H14       1.0  0.69238  0.02507  0.43909  1.0000
  O   O15       1.0  0.52636  0.86937  0.67704  1.0000
  C   C29       1.0  0.58443  0.97289  0.53793  1.0000
  O   O16       1.0  0.47564  0.15056  0.33492  1.0000
  C   C30       1.0  0.40538  0.02851  0.46932  1.0000
  C   C31       1.0  0.44520  0.90050  0.65082  1.0000
  C   C32       1.0  0.47389  0.95916  0.57684  1.0000
  H   H15       1.0  0.33481  0.05096  0.44450  1.0000
  H   H16       1.0  0.65509  0.95055  0.56273  1.0000
  O   O17       1.0  0.11953  0.46043  0.68272  1.0000
  C   C33       1.0  0.01083  0.39805  0.54346  1.0000
  C   C34       1.0  0.90390  0.44589  0.35931  1.0000
  C   C35       1.0  0.96003  0.47579  0.43302  1.0000
  H   H17       1.0  0.04286  0.70361  0.56590  1.0000
  H   H18       1.0  0.02228  0.32213  0.57053  1.0000
  H   H19       1.0  0.97348  0.66803  0.44139  1.0000
  O   O18       1.0  0.12288  0.65394  0.68038  1.0000
  C   C36       1.0  0.02235  0.61143  0.54075  1.0000
  O   O19       1.0  0.85569  0.32709  0.33796  1.0000
  C   C37       1.0  0.97322  0.37889  0.47172  1.0000
  H   H20       1.0  0.95348  0.28688  0.44665  1.0000
  C   C38       1.0  0.09371  0.54321  0.65269  1.0000
  C   C39       1.0  0.03582  0.51446  0.57932  1.0000
  O   O20       1.0  0.90115  0.53637  0.32155  1.0000
  C   C40       1.0  0.98496  0.59236  0.46874  1.0000
  H   H21       1.0  0.95941  0.27791  0.07185  1.0000
  O   O21       1.0  0.90965  0.36595  0.19305  1.0000
  C   C41       1.0  0.96248  0.35812  0.04105  1.0000
  O   O22       1.0  0.11137  0.64143  0.82921  1.0000
  C   C42       1.0  0.97292  0.55300  0.96466  1.0000
  H   H22       1.0  0.90854  0.63697  0.04276  1.0000
  C   C43       1.0  0.89006  0.44624  0.14517  1.0000
  C   C44       1.0  0.92472  0.45344  0.07544  1.0000
  H   H23       1.0  0.03157  0.30644  0.94837  1.0000
  C   C45       1.0  0.00258  0.37386  0.97098  1.0000
  O   O23       1.0  0.12768  0.45833  0.83084  1.0000
  O   O24       1.0  0.87782  0.55017  0.17208  1.0000
  C   C46       1.0  0.93123  0.56066  0.02755  1.0000
  C   C47       1.0  0.08666  0.53138  0.85746  1.0000
  C   C48       1.0  0.01021  0.48515  0.92588  1.0000
  Fe  Fe1       1.0  0.77302  0.53290  0.25535  1.0000
  Fe  Fe2       1.0  0.48343  0.24653  0.25330  1.0000
  Fe  Fe3       1.0  0.76608  0.23919  0.25512  1.0000
  Fe  Fe4       1.0  0.23944  0.47124  0.75487  1.0000
  Fe  Fe5       1.0  0.52431  0.76511  0.75413  1.0000
  Fe  Fe6       1.0  0.23021  0.75601  0.75661  1.0000
  O   O25       1.0  0.67539  0.34014  0.25256  1.0000
  O   O26       1.0  0.33108  0.66401  0.75545  1.0000
