data_image0
_chemical_formula_structural       C4H2C2H2C2H2C2H2C2H2C2H2CN6O12C4H2C2H2C2H2C2H2C2H2C2H2CN6O12Tb4
_chemical_formula_sum              "C30 H24 N12 O24 Tb4"
_cell_length_a       10.7095
_cell_length_b       11.359
_cell_length_c       12.0866
_cell_angle_alpha    62.703
_cell_angle_beta     74.569
_cell_angle_gamma    68.667

_space_group_name_H-M_alt    "P 1"
_space_group_IT_number       1

loop_
  _space_group_symop_operation_xyz
  'x, y, z'

loop_
  _atom_site_type_symbol
  _atom_site_label
  _atom_site_symmetry_multiplicity
  _atom_site_fract_x
  _atom_site_fract_y
  _atom_site_fract_z
  _atom_site_occupancy
  C   C1        1.0  0.36800  0.10190  0.10230  1.0000
  C   C2        1.0  0.59020  0.06980  0.06010  1.0000
  C   C3        1.0  0.50130  0.91790  0.23350  1.0000
  C   C4        1.0  0.65460  0.73080  0.37970  1.0000
  H   H1        1.0  0.71590  0.71230  0.30850  1.0000
  H   H2        1.0  0.65220  0.64030  0.44920  1.0000
  C   C5        1.0  0.71480  0.80190  0.42100  1.0000
  C   C6        1.0  0.40960  0.74520  0.41990  1.0000
  H   H3        1.0  0.43810  0.64450  0.44210  1.0000
  H   H4        1.0  0.33090  0.78740  0.37240  1.0000
  C   C7        1.0  0.36790  0.77130  0.54120  1.0000
  C   C8        1.0  0.82450  0.05370  0.04230  1.0000
  H   H5        1.0  0.89280  0.09660  0.97880  1.0000
  H   H6        1.0  0.85660  0.95360  0.06160  1.0000
  C   C9        1.0  0.81520  0.07310  0.15980  1.0000
  C   C10       1.0  0.68690  0.22640  0.86750  1.0000
  H   H7        1.0  0.62600  0.21750  0.82450  1.0000
  H   H8        1.0  0.77690  0.21710  0.81750  1.0000
  C   C11       1.0  0.63570  0.36950  0.86440  1.0000
  C   C12       1.0  0.12540  0.14900  0.16310  1.0000
  H   H9        1.0  0.12490  0.06140  0.16460  1.0000
  H   H10       1.0  0.04260  0.22000  0.12820  1.0000
  C   C13       1.0  0.11680  0.13000  0.29600  1.0000
  C   C14       1.0  0.22810  0.32690  0.97680  1.0000
  H   H11       1.0  0.13100  0.37770  0.97270  1.0000
  H   H12       1.0  0.26560  0.31750  0.89610  1.0000
  C   C15       1.0  0.29980  0.41180  0.99250  1.0000
  N   N1        1.0  0.46960  0.14630  0.02090  1.0000
  N   N2        1.0  0.61470  0.95430  0.16570  1.0000
  N   N3        1.0  0.37540  0.98650  0.20640  1.0000
  N   N4        1.0  0.51950  0.80300  0.34140  1.0000
  N   N5        1.0  0.69910  0.11150  0.98880  1.0000
  N   N6        1.0  0.24080  0.18900  0.07790  1.0000
  O   O1        1.0  0.65720  0.91930  0.42140  1.0000
  O   O2        1.0  0.83400  0.73910  0.45220  1.0000
  O   O3        1.0  0.43000  0.68620  0.63270  1.0000
  O   O4        1.0  0.27360  0.87810  0.53790  1.0000
  O   O5        1.0  0.90010  0.98730  0.23440  1.0000
  O   O6        1.0  0.72570  0.17470  0.17710  1.0000
  O   O7        1.0  0.58120  0.39040  0.96170  1.0000
  O   O8        1.0  0.63860  0.47090  0.75870  1.0000
  O   O9        1.0  0.03630  0.06480  0.37840  1.0000
  O   O10       1.0  0.18560  0.17620  0.32900  1.0000
  O   O11       1.0  0.32090  0.51410  0.89190  1.0000
  O   O12       1.0  0.33000  0.38000  0.09780  1.0000
  C   C16       1.0  0.63200  0.89810  0.89770  1.0000
  C   C17       1.0  0.40980  0.93020  0.93990  1.0000
  C   C18       1.0  0.49870  0.08210  0.76650  1.0000
  C   C19       1.0  0.34540  0.26920  0.62030  1.0000
  H   H13       1.0  0.28410  0.28770  0.69150  1.0000
  H   H14       1.0  0.34780  0.35970  0.55080  1.0000
  C   C20       1.0  0.28520  0.19810  0.57900  1.0000
  C   C21       1.0  0.59040  0.25480  0.58010  1.0000
  H   H15       1.0  0.56190  0.35550  0.55790  1.0000
  H   H16       1.0  0.66910  0.21260  0.62760  1.0000
  C   C22       1.0  0.63210  0.22870  0.45880  1.0000
  C   C23       1.0  0.17550  0.94630  0.95770  1.0000
  H   H17       1.0  0.10720  0.90340  0.02120  1.0000
  H   H18       1.0  0.14340  0.04640  0.93840  1.0000
  C   C24       1.0  0.18480  0.92690  0.84020  1.0000
  C   C25       1.0  0.31310  0.77360  0.13250  1.0000
  H   H19       1.0  0.37400  0.78250  0.17550  1.0000
  H   H20       1.0  0.22310  0.78290  0.18250  1.0000
  C   C26       1.0  0.36430  0.63050  0.13560  1.0000
  C   C27       1.0  0.87460  0.85100  0.83690  1.0000
  H   H21       1.0  0.87510  0.93860  0.83540  1.0000
  H   H22       1.0  0.95740  0.78000  0.87180  1.0000
  C   C28       1.0  0.88320  0.87000  0.70400  1.0000
  C   C29       1.0  0.77190  0.67310  0.02320  1.0000
  H   H23       1.0  0.86900  0.62230  0.02730  1.0000
  H   H24       1.0  0.73440  0.68250  0.10390  1.0000
  C   C30       1.0  0.70020  0.58820  0.00750  1.0000
  N   N7        1.0  0.53040  0.85370  0.97910  1.0000
  N   N8        1.0  0.38530  0.04570  0.83430  1.0000
  N   N9        1.0  0.62460  0.01350  0.79360  1.0000
  N   N10       1.0  0.48050  0.19700  0.65860  1.0000
  N   N11       1.0  0.30090  0.88850  0.01120  1.0000
  N   N12       1.0  0.75920  0.81100  0.92210  1.0000
  O   O13       1.0  0.34280  0.08070  0.57860  1.0000
  O   O14       1.0  0.16600  0.26090  0.54780  1.0000
  O   O15       1.0  0.57000  0.31380  0.36730  1.0000
  O   O16       1.0  0.72640  0.12190  0.46210  1.0000
  O   O17       1.0  0.09990  0.01270  0.76560  1.0000
  O   O18       1.0  0.27430  0.82530  0.82290  1.0000
  O   O19       1.0  0.41880  0.60960  0.03830  1.0000
  O   O20       1.0  0.36140  0.52910  0.24130  1.0000
  O   O21       1.0  0.96370  0.93520  0.62160  1.0000
  O   O22       1.0  0.81440  0.82380  0.67100  1.0000
  O   O23       1.0  0.67910  0.48590  0.10810  1.0000
  O   O24       1.0  0.67000  0.62000  0.90220  1.0000
  Tb  Tb1       1.0  0.47116  0.64566  0.82965  1.0000
  Tb  Tb2       1.0  0.52884  0.35434  0.17035  1.0000
  Tb  Tb3       1.0  0.12165  0.06573  0.55370  1.0000
  Tb  Tb4       1.0  0.87835  0.93427  0.44630  1.0000
