data_image0
_chemical_formula_structural       S2O10C3HC3HCHC3HC2HCHC2S2O10C3HC3HCHC3HC2HCHS2O10C3HC3HCHC3HC2HCHCS2O10C3HC3HCHC3HC2HCHCN2CHCHC2HCHC2HCHCHCHC2HCHN2CHCHC2HCHCHCHNCHCHC2HCHNCHCHC2HCHNCHCHC2HCHNCHCHC2HCHCHCHC2HCHC2HCHCHCHN3CHCHC2HCHCHCHC2HCHNCHCHC2HCHNCHCHC2HCHNCHCHC2HCHNCHCHC2HCHN3CHCHC2HCHC2HCHCHCHN2CHCHC2HCHC2HCHCHCHCu8
_chemical_formula_sum              "S8 O40 C156 H104 N20 Cu8"
_cell_length_a       11.1292
_cell_length_b       18.8549
_cell_length_c       19.3898
_cell_angle_alpha    90
_cell_angle_beta     99.51
_cell_angle_gamma    90

_space_group_name_H-M_alt    "P 1"
_space_group_IT_number       1

loop_
  _space_group_symop_operation_xyz
  'x, y, z'

loop_
  _atom_site_type_symbol
  _atom_site_label
  _atom_site_symmetry_multiplicity
  _atom_site_fract_x
  _atom_site_fract_y
  _atom_site_fract_z
  _atom_site_occupancy
  S   S1        1.0  0.43184  0.68101  0.18191  1.0000
  S   S2        1.0  0.79224  0.79826  0.07636  1.0000
  O   O1        1.0  0.59609  0.53922  0.88619  1.0000
  O   O2        1.0  0.61230  0.64913  0.84798  1.0000
  O   O3        1.0  0.79850  0.76320  0.44330  1.0000
  O   O4        1.0  0.62030  0.71080  0.43670  1.0000
  O   O5        1.0  0.41562  0.70527  0.10974  1.0000
  O   O6        1.0  0.41914  0.60491  0.18735  1.0000
  O   O7        1.0  0.35510  0.71911  0.22281  1.0000
  O   O8        1.0  0.78020  0.83369  0.00925  1.0000
  O   O9        1.0  0.73980  0.83631  0.12780  1.0000
  O   O10       1.0  0.91730  0.77648  0.10181  1.0000
  C   C1        1.0  0.61410  0.60567  0.89630  1.0000
  C   C2        1.0  0.63650  0.62907  0.97112  1.0000
  C   C3        1.0  0.68880  0.69463  0.98951  1.0000
  H   H1        1.0  0.70900  0.72439  0.95493  1.0000
  C   C4        1.0  0.71130  0.71637  0.05882  1.0000
  C   C5        1.0  0.67550  0.67389  0.11136  1.0000
  C   C6        1.0  0.62590  0.60793  0.09177  1.0000
  H   H2        1.0  0.60352  0.57830  0.12586  1.0000
  C   C7        1.0  0.60860  0.58499  0.02332  1.0000
  H   H3        1.0  0.57822  0.53974  0.01220  1.0000
  C   C8        1.0  0.68620  0.69540  0.18639  1.0000
  C   C9        1.0  0.58520  0.69962  0.22109  1.0000
  C   C10       1.0  0.60020  0.71480  0.29172  1.0000
  H   H4        1.0  0.53227  0.71672  0.31388  1.0000
  C   C11       1.0  0.71420  0.72717  0.32989  1.0000
  C   C12       1.0  0.81450  0.72483  0.29603  1.0000
  H   H5        1.0  0.89168  0.73420  0.32085  1.0000
  C   C13       1.0  0.80050  0.70878  0.22606  1.0000
  H   H6        1.0  0.86915  0.70675  0.20450  1.0000
  C   C14       1.0  0.70650  0.73300  0.40960  1.0000
  C   C15       1.0  0.79350  0.23300  0.09040  1.0000
  S   S3        1.0  0.06816  0.18101  0.31809  1.0000
  S   S4        1.0  0.70776  0.29826  0.42364  1.0000
  O   O11       1.0  0.90391  0.03922  0.61381  1.0000
  O   O12       1.0  0.88770  0.14913  0.65202  1.0000
  O   O13       1.0  0.70150  0.26320  0.05670  1.0000
  O   O14       1.0  0.87970  0.21080  0.06330  1.0000
  O   O15       1.0  0.08438  0.20527  0.39026  1.0000
  O   O16       1.0  0.08086  0.10491  0.31265  1.0000
  O   O17       1.0  0.14490  0.21911  0.27719  1.0000
  O   O18       1.0  0.71980  0.33369  0.49075  1.0000
  O   O19       1.0  0.76020  0.33631  0.37220  1.0000
  O   O20       1.0  0.58270  0.27648  0.39819  1.0000
  C   C16       1.0  0.88590  0.10567  0.60370  1.0000
  C   C17       1.0  0.86350  0.12907  0.52888  1.0000
  C   C18       1.0  0.81120  0.19463  0.51049  1.0000
  H   H7        1.0  0.79100  0.22439  0.54507  1.0000
  C   C19       1.0  0.78870  0.21637  0.44118  1.0000
  C   C20       1.0  0.82450  0.17389  0.38864  1.0000
  C   C21       1.0  0.87410  0.10793  0.40823  1.0000
  H   H8        1.0  0.89648  0.07830  0.37414  1.0000
  C   C22       1.0  0.89140  0.08499  0.47668  1.0000
  H   H9        1.0  0.92178  0.03974  0.48780  1.0000
  C   C23       1.0  0.81380  0.19540  0.31361  1.0000
  C   C24       1.0  0.91480  0.19962  0.27891  1.0000
  C   C25       1.0  0.89980  0.21480  0.20828  1.0000
  H   H10       1.0  0.96773  0.21672  0.18612  1.0000
  C   C26       1.0  0.78580  0.22717  0.17011  1.0000
  C   C27       1.0  0.68550  0.22483  0.20397  1.0000
  H   H11       1.0  0.60831  0.23420  0.17915  1.0000
  C   C28       1.0  0.69950  0.20878  0.27394  1.0000
  H   H12       1.0  0.63085  0.20675  0.29550  1.0000
  S   S5        1.0  0.56816  0.31899  0.81809  1.0000
  S   S6        1.0  0.20776  0.20174  0.92364  1.0000
  O   O21       1.0  0.40391  0.46078  0.11381  1.0000
  O   O22       1.0  0.38770  0.35087  0.15202  1.0000
  O   O23       1.0  0.20150  0.23680  0.55670  1.0000
  O   O24       1.0  0.37970  0.28920  0.56330  1.0000
  O   O25       1.0  0.58438  0.29473  0.89026  1.0000
  O   O26       1.0  0.58086  0.39509  0.81265  1.0000
  O   O27       1.0  0.64490  0.28089  0.77719  1.0000
  O   O28       1.0  0.21980  0.16631  0.99075  1.0000
  O   O29       1.0  0.26020  0.16369  0.87220  1.0000
  O   O30       1.0  0.08270  0.22352  0.89819  1.0000
  C   C29       1.0  0.38590  0.39433  0.10370  1.0000
  C   C30       1.0  0.36350  0.37093  0.02888  1.0000
  C   C31       1.0  0.31120  0.30537  0.01049  1.0000
  H   H13       1.0  0.29100  0.27561  0.04507  1.0000
  C   C32       1.0  0.28870  0.28363  0.94118  1.0000
  C   C33       1.0  0.32450  0.32611  0.88864  1.0000
  C   C34       1.0  0.37410  0.39207  0.90823  1.0000
  H   H14       1.0  0.39648  0.42170  0.87414  1.0000
  C   C35       1.0  0.39140  0.41501  0.97668  1.0000
  H   H15       1.0  0.42178  0.46026  0.98780  1.0000
  C   C36       1.0  0.31380  0.30460  0.81361  1.0000
  C   C37       1.0  0.41480  0.30038  0.77891  1.0000
  C   C38       1.0  0.39980  0.28520  0.70828  1.0000
  H   H16       1.0  0.46773  0.28328  0.68612  1.0000
  C   C39       1.0  0.28580  0.27283  0.67011  1.0000
  C   C40       1.0  0.18550  0.27517  0.70397  1.0000
  H   H17       1.0  0.10832  0.26580  0.67915  1.0000
  C   C41       1.0  0.19950  0.29122  0.77394  1.0000
  H   H18       1.0  0.13085  0.29325  0.79550  1.0000
  C   C42       1.0  0.29350  0.26700  0.59040  1.0000
  S   S7        1.0  0.93184  0.81899  0.68191  1.0000
  S   S8        1.0  0.29224  0.70174  0.57636  1.0000
  O   O31       1.0  0.09609  0.96078  0.38619  1.0000
  O   O32       1.0  0.11230  0.85087  0.34798  1.0000
  O   O33       1.0  0.29850  0.73680  0.94330  1.0000
  O   O34       1.0  0.12030  0.78920  0.93670  1.0000
  O   O35       1.0  0.91562  0.79473  0.60974  1.0000
  O   O36       1.0  0.91914  0.89509  0.68735  1.0000
  O   O37       1.0  0.85510  0.78089  0.72281  1.0000
  O   O38       1.0  0.28020  0.66631  0.50925  1.0000
  O   O39       1.0  0.23980  0.66369  0.62780  1.0000
  O   O40       1.0  0.41730  0.72352  0.60181  1.0000
  C   C43       1.0  0.11410  0.89433  0.39630  1.0000
  C   C44       1.0  0.13650  0.87093  0.47112  1.0000
  C   C45       1.0  0.18880  0.80537  0.48951  1.0000
  H   H19       1.0  0.20900  0.77561  0.45493  1.0000
  C   C46       1.0  0.21130  0.78363  0.55882  1.0000
  C   C47       1.0  0.17550  0.82611  0.61136  1.0000
  C   C48       1.0  0.12590  0.89207  0.59177  1.0000
  H   H20       1.0  0.10352  0.92170  0.62586  1.0000
  C   C49       1.0  0.10860  0.91501  0.52332  1.0000
  H   H21       1.0  0.07822  0.96026  0.51220  1.0000
  C   C50       1.0  0.18620  0.80460  0.68639  1.0000
  C   C51       1.0  0.08520  0.80038  0.72109  1.0000
  C   C52       1.0  0.10020  0.78520  0.79172  1.0000
  H   H22       1.0  0.03227  0.78328  0.81388  1.0000
  C   C53       1.0  0.21420  0.77283  0.82989  1.0000
  C   C54       1.0  0.31450  0.77517  0.79603  1.0000
  H   H23       1.0  0.39168  0.76580  0.82085  1.0000
  C   C55       1.0  0.30050  0.79122  0.72606  1.0000
  H   H24       1.0  0.36915  0.79325  0.70450  1.0000
  C   C56       1.0  0.20650  0.76700  0.90960  1.0000
  N   N1        1.0  0.76060  0.52073  0.78792  1.0000
  N   N2        1.0  0.39120  0.52700  0.77794  1.0000
  C   C57       1.0  0.81490  0.58206  0.77750  1.0000
  H   H25       1.0  0.76833  0.62327  0.77309  1.0000
  C   C58       1.0  0.93730  0.58694  0.77310  1.0000
  H   H26       1.0  0.97216  0.63078  0.76672  1.0000
  C   C59       1.0  0.00720  0.52638  0.77818  1.0000
  C   C60       1.0  0.95020  0.46313  0.78738  1.0000
  H   H27       1.0  0.99404  0.42093  0.79039  1.0000
  C   C61       1.0  0.82790  0.46254  0.79211  1.0000
  H   H28       1.0  0.79104  0.41931  0.79854  1.0000
  C   C62       1.0  0.13990  0.52836  0.77545  1.0000
  C   C63       1.0  0.19390  0.47809  0.73838  1.0000
  H   H29       1.0  0.14669  0.44370  0.71230  1.0000
  C   C64       1.0  0.31810  0.47949  0.74049  1.0000
  H   H30       1.0  0.35296  0.44591  0.71472  1.0000
  C   C65       1.0  0.33850  0.57669  0.81218  1.0000
  H   H31       1.0  0.38742  0.61106  0.83721  1.0000
  C   C66       1.0  0.21440  0.57896  0.81183  1.0000
  H   H32       1.0  0.18107  0.61452  0.83606  1.0000
  C   C67       1.0  0.48730  0.49901  0.46124  1.0000
  C   C68       1.0  0.43890  0.55630  0.42131  1.0000
  H   H33       1.0  0.42014  0.59794  0.44294  1.0000
  C   C69       1.0  0.41890  0.55142  0.34972  1.0000
  H   H34       1.0  0.38602  0.59035  0.32378  1.0000
  N   N3        1.0  0.55566  0.50631  0.68410  1.0000
  N   N4        1.0  0.44434  0.49369  0.31590  1.0000
  C   C70       1.0  0.51170  0.56167  0.64619  1.0000
  H   H35       1.0  0.49390  0.60271  0.66912  1.0000
  C   C71       1.0  0.49130  0.56106  0.57437  1.0000
  H   H36       1.0  0.46273  0.60171  0.54982  1.0000
  C   C72       1.0  0.51270  0.50099  0.53876  1.0000
  C   C73       1.0  0.56110  0.44370  0.57869  1.0000
  H   H37       1.0  0.57986  0.40206  0.55706  1.0000
  C   C74       1.0  0.58110  0.44858  0.65028  1.0000
  H   H38       1.0  0.61398  0.40965  0.67622  1.0000
  C   C75       1.0  0.48830  0.43833  0.35381  1.0000
  H   H39       1.0  0.50610  0.39729  0.33088  1.0000
  C   C76       1.0  0.50870  0.43894  0.42563  1.0000
  H   H40       1.0  0.53727  0.39829  0.45018  1.0000
  N   N5        1.0  0.16990  0.65858  0.03174  1.0000
  C   C77       1.0  0.05030  0.65856  0.02090  1.0000
  H   H41       1.0  0.01012  0.70176  0.02156  1.0000
  C   C78       1.0  0.98150  0.59824  0.00880  1.0000
  H   H42       1.0  0.89702  0.60143  0.00206  1.0000
  C   C79       1.0  0.03560  0.53336  0.00658  1.0000
  C   C80       1.0  0.16060  0.53392  0.01821  1.0000
  H   H43       1.0  0.20301  0.49147  0.01770  1.0000
  C   C81       1.0  0.22390  0.59656  0.03062  1.0000
  H   H44       1.0  0.30860  0.59501  0.03858  1.0000
  N   N6        1.0  0.83010  0.34142  0.96826  1.0000
  C   C82       1.0  0.94970  0.34144  0.97910  1.0000
  H   H45       1.0  0.98988  0.29824  0.97844  1.0000
  C   C83       1.0  0.01850  0.40176  0.99120  1.0000
  H   H46       1.0  0.10298  0.39857  0.99794  1.0000
  C   C84       1.0  0.96440  0.46664  0.99342  1.0000
  C   C85       1.0  0.83940  0.46608  0.98179  1.0000
  H   H47       1.0  0.79699  0.50853  0.98230  1.0000
  C   C86       1.0  0.77610  0.40344  0.96938  1.0000
  H   H48       1.0  0.69140  0.40499  0.96142  1.0000
  N   N7        1.0  0.34710  0.84396  0.03796  1.0000
  C   C87       1.0  0.29720  0.90720  0.03690  1.0000
  H   H49       1.0  0.21835  0.91029  0.04667  1.0000
  C   C88       1.0  0.35090  0.96650  0.02300  1.0000
  H   H50       1.0  0.30795  0.00888  0.02260  1.0000
  C   C89       1.0  0.46680  0.96822  0.00931  1.0000
  C   C90       1.0  0.52300  0.90290  0.00780  1.0000
  H   H51       1.0  0.60105  0.90009  0.99674  1.0000
  C   C91       1.0  0.46030  0.83830  0.02340  1.0000
  H   H52       1.0  0.49807  0.79428  0.02335  1.0000
  N   N8        1.0  0.65290  0.15604  0.96204  1.0000
  C   C92       1.0  0.70280  0.09280  0.96310  1.0000
  H   H53       1.0  0.78165  0.08971  0.95333  1.0000
  C   C93       1.0  0.64910  0.03350  0.97700  1.0000
  H   H54       1.0  0.69205  0.99112  0.97740  1.0000
  C   C94       1.0  0.53320  0.03178  0.99069  1.0000
  C   C95       1.0  0.47700  0.09710  0.99220  1.0000
  H   H55       1.0  0.39895  0.09991  0.00326  1.0000
  C   C96       1.0  0.53970  0.16170  0.97660  1.0000
  H   H56       1.0  0.50193  0.20572  0.97665  1.0000
  C   C97       1.0  0.68510  0.08206  0.72250  1.0000
  H   H57       1.0  0.73167  0.12327  0.72691  1.0000
  C   C98       1.0  0.56270  0.08694  0.72690  1.0000
  H   H58       1.0  0.52784  0.13078  0.73328  1.0000
  C   C99       1.0  0.49280  0.02638  0.72182  1.0000
  C   C100      1.0  0.54980  0.96313  0.71262  1.0000
  H   H59       1.0  0.50596  0.92093  0.70961  1.0000
  C   C101      1.0  0.67210  0.96254  0.70789  1.0000
  H   H60       1.0  0.70896  0.91931  0.70146  1.0000
  C   C102      1.0  0.36010  0.02836  0.72455  1.0000
  C   C103      1.0  0.30610  0.97809  0.76162  1.0000
  H   H61       1.0  0.35331  0.94370  0.78770  1.0000
  C   C104      1.0  0.18190  0.97949  0.75951  1.0000
  H   H62       1.0  0.14704  0.94591  0.78528  1.0000
  C   C105      1.0  0.16150  0.07669  0.68782  1.0000
  H   H63       1.0  0.11258  0.11106  0.66279  1.0000
  C   C106      1.0  0.28560  0.07896  0.68817  1.0000
  H   H64       1.0  0.31893  0.11452  0.66394  1.0000
  N   N9        1.0  0.73940  0.02073  0.71208  1.0000
  N   N10       1.0  0.10880  0.02700  0.72206  1.0000
  N   N11       1.0  0.05566  0.99369  0.18410  1.0000
  C   C107      1.0  0.98830  0.06167  0.85381  1.0000
  H   H65       1.0  0.00610  0.10271  0.83088  1.0000
  C   C108      1.0  0.00870  0.06106  0.92563  1.0000
  H   H66       1.0  0.03727  0.10171  0.95018  1.0000
  C   C109      1.0  0.98730  0.00099  0.96124  1.0000
  C   C110      1.0  0.93890  0.94370  0.92131  1.0000
  H   H67       1.0  0.92014  0.90206  0.94294  1.0000
  C   C111      1.0  0.91890  0.94858  0.84972  1.0000
  H   H68       1.0  0.88602  0.90965  0.82378  1.0000
  C   C112      1.0  0.01170  0.93833  0.14619  1.0000
  H   H69       1.0  0.99390  0.89729  0.16912  1.0000
  C   C113      1.0  0.99130  0.93894  0.07437  1.0000
  H   H70       1.0  0.96273  0.89829  0.04982  1.0000
  C   C114      1.0  0.01270  0.99901  0.03876  1.0000
  C   C115      1.0  0.06110  0.05630  0.07869  1.0000
  H   H71       1.0  0.07986  0.09794  0.05706  1.0000
  C   C116      1.0  0.08110  0.05142  0.15028  1.0000
  H   H72       1.0  0.11398  0.09035  0.17622  1.0000
  N   N12       1.0  0.94434  0.00631  0.81590  1.0000
  C   C117      1.0  0.44970  0.15856  0.47910  1.0000
  H   H73       1.0  0.48988  0.20176  0.47844  1.0000
  C   C118      1.0  0.51850  0.09824  0.49120  1.0000
  H   H74       1.0  0.60298  0.10143  0.49794  1.0000
  C   C119      1.0  0.46440  0.03336  0.49342  1.0000
  C   C120      1.0  0.33940  0.03392  0.48179  1.0000
  H   H75       1.0  0.29699  0.99147  0.48230  1.0000
  C   C121      1.0  0.27610  0.09656  0.46938  1.0000
  H   H76       1.0  0.19140  0.09501  0.46142  1.0000
  N   N13       1.0  0.66990  0.84142  0.53174  1.0000
  C   C122      1.0  0.55030  0.84144  0.52090  1.0000
  H   H77       1.0  0.51012  0.79824  0.52156  1.0000
  C   C123      1.0  0.48150  0.90176  0.50880  1.0000
  H   H78       1.0  0.39702  0.89857  0.50206  1.0000
  C   C124      1.0  0.53560  0.96664  0.50658  1.0000
  C   C125      1.0  0.66060  0.96608  0.51821  1.0000
  H   H79       1.0  0.70301  0.00853  0.51770  1.0000
  C   C126      1.0  0.72390  0.90344  0.53062  1.0000
  H   H80       1.0  0.80860  0.90499  0.53858  1.0000
  N   N14       1.0  0.33010  0.15858  0.46826  1.0000
  C   C127      1.0  0.20280  0.40720  0.46310  1.0000
  H   H81       1.0  0.28165  0.41029  0.45333  1.0000
  C   C128      1.0  0.14910  0.46650  0.47700  1.0000
  H   H82       1.0  0.19205  0.50888  0.47740  1.0000
  C   C129      1.0  0.03320  0.46822  0.49069  1.0000
  C   C130      1.0  0.97700  0.40290  0.49220  1.0000
  H   H83       1.0  0.89895  0.40009  0.50326  1.0000
  C   C131      1.0  0.03970  0.33830  0.47660  1.0000
  H   H84       1.0  0.00193  0.29428  0.47665  1.0000
  N   N15       1.0  0.84710  0.65604  0.53796  1.0000
  C   C132      1.0  0.79720  0.59280  0.53690  1.0000
  H   H85       1.0  0.71835  0.58971  0.54667  1.0000
  C   C133      1.0  0.85090  0.53350  0.52300  1.0000
  H   H86       1.0  0.80795  0.49112  0.52260  1.0000
  C   C134      1.0  0.96680  0.53178  0.50931  1.0000
  C   C135      1.0  0.02300  0.59710  0.50780  1.0000
  H   H87       1.0  0.10105  0.59991  0.49674  1.0000
  C   C136      1.0  0.96030  0.66170  0.52340  1.0000
  H   H88       1.0  0.99807  0.70572  0.52335  1.0000
  N   N16       1.0  0.15290  0.34396  0.46204  1.0000
  N   N17       1.0  0.23940  0.47927  0.21208  1.0000
  N   N18       1.0  0.60880  0.47300  0.22206  1.0000
  C   C137      1.0  0.18510  0.41794  0.22250  1.0000
  H   H89       1.0  0.23167  0.37673  0.22691  1.0000
  C   C138      1.0  0.06270  0.41306  0.22690  1.0000
  H   H90       1.0  0.02784  0.36922  0.23328  1.0000
  C   C139      1.0  0.99280  0.47362  0.22182  1.0000
  C   C140      1.0  0.04980  0.53687  0.21262  1.0000
  H   H91       1.0  0.00596  0.57907  0.20961  1.0000
  C   C141      1.0  0.17210  0.53746  0.20789  1.0000
  H   H92       1.0  0.20896  0.58069  0.20146  1.0000
  C   C142      1.0  0.86010  0.47164  0.22455  1.0000
  C   C143      1.0  0.80610  0.52191  0.26162  1.0000
  H   H93       1.0  0.85331  0.55630  0.28770  1.0000
  C   C144      1.0  0.68190  0.52051  0.25951  1.0000
  H   H94       1.0  0.64704  0.55409  0.28528  1.0000
  C   C145      1.0  0.66150  0.42331  0.18782  1.0000
  H   H95       1.0  0.61258  0.38894  0.16279  1.0000
  C   C146      1.0  0.78560  0.42104  0.18817  1.0000
  H   H96       1.0  0.81893  0.38548  0.16394  1.0000
  N   N19       1.0  0.26060  0.97927  0.28792  1.0000
  N   N20       1.0  0.89120  0.97300  0.27794  1.0000
  C   C147      1.0  0.31490  0.91794  0.27750  1.0000
  H   H97       1.0  0.26833  0.87673  0.27309  1.0000
  C   C148      1.0  0.43730  0.91306  0.27310  1.0000
  H   H98       1.0  0.47216  0.86922  0.26672  1.0000
  C   C149      1.0  0.50720  0.97362  0.27818  1.0000
  C   C150      1.0  0.45020  0.03687  0.28738  1.0000
  H   H99       1.0  0.49404  0.07907  0.29039  1.0000
  C   C151      1.0  0.32790  0.03746  0.29211  1.0000
  H   H100      1.0  0.29104  0.08069  0.29854  1.0000
  C   C152      1.0  0.63990  0.97164  0.27545  1.0000
  C   C153      1.0  0.69390  0.02191  0.23838  1.0000
  H   H101      1.0  0.64669  0.05630  0.21230  1.0000
  C   C154      1.0  0.81810  0.02051  0.24049  1.0000
  H   H102      1.0  0.85296  0.05409  0.21472  1.0000
  C   C155      1.0  0.83850  0.92331  0.31218  1.0000
  H   H103      1.0  0.88742  0.88894  0.33721  1.0000
  C   C156      1.0  0.71440  0.92104  0.31183  1.0000
  H   H104      1.0  0.68107  0.88548  0.33606  1.0000
  Cu  Cu1       1.0  0.57677  0.51744  0.78744  1.0000
  Cu  Cu2       1.0  0.26096  0.75087  0.03910  1.0000
  Cu  Cu3       1.0  0.07677  0.98256  0.28744  1.0000
  Cu  Cu4       1.0  0.76096  0.74913  0.53910  1.0000
  Cu  Cu5       1.0  0.42323  0.48256  0.21256  1.0000
  Cu  Cu6       1.0  0.73904  0.24913  0.96090  1.0000
  Cu  Cu7       1.0  0.92323  0.01744  0.71256  1.0000
  Cu  Cu8       1.0  0.23904  0.25087  0.46090  1.0000
