data_image0
_chemical_formula_structural       C2H2C2H2CHC3HCHCHCHN2OHO3C2H2C2H2CHC3HCHCHCHN2OHO3C2H2C2H2CHC3HCHCHCHN2OHO3C2H2C2H2CHC3HCHCHCHN2OHO3N2OHO3C2H2C2H2CHC3HCHCHCHC2H2C2H2CHC3HCHCHCHN2OHO3C2H2C2H2CHC3HCHCHCHN2OHO3C2H2C2H2CHC3HCHCHCHN2OHO3
_chemical_formula_sum              "C88 H80 N16 O32"
_cell_length_a       16.0907
_cell_length_b       8.1806
_cell_length_c       19.3536
_cell_angle_alpha    90
_cell_angle_beta     116.312
_cell_angle_gamma    90

_space_group_name_H-M_alt    "P 1"
_space_group_IT_number       1

loop_
  _space_group_symop_operation_xyz
  'x, y, z'

loop_
  _atom_site_type_symbol
  _atom_site_label
  _atom_site_symmetry_multiplicity
  _atom_site_fract_x
  _atom_site_fract_y
  _atom_site_fract_z
  _atom_site_occupancy
  C   C1        1.0  0.47734  0.59260  0.38803  1.0000
  C   C2        1.0  0.55938  0.70540  0.40985  1.0000
  H   H1        1.0  0.54113  0.79744  0.37462  1.0000
  H   H2        1.0  0.57676  0.74759  0.46126  1.0000
  C   C3        1.0  0.85563  0.64350  0.32804  1.0000
  C   C4        1.0  0.77939  0.51740  0.31285  1.0000
  H   H3        1.0  0.73276  0.52704  0.25978  1.0000
  H   H4        1.0  0.80584  0.40861  0.31974  1.0000
  C   C5        1.0  0.65725  0.61970  0.34718  1.0000
  H   H5        1.0  0.62000  0.66587  0.29942  1.0000
  C   C6        1.0  0.71099  0.54400  0.46902  1.0000
  C   C7        1.0  0.77154  0.48890  0.44078  1.0000
  C   C8        1.0  0.85075  0.40040  0.48681  1.0000
  H   H6        1.0  0.89143  0.36252  0.46813  1.0000
  C   C9        1.0  0.86569  0.37170  0.56176  1.0000
  H   H7        1.0  0.91801  0.31346  0.59452  1.0000
  C   C10       1.0  0.80446  0.42780  0.58968  1.0000
  H   H8        1.0  0.81730  0.40640  0.64062  1.0000
  C   C11       1.0  0.72568  0.51390  0.54409  1.0000
  H   H9        1.0  0.68447  0.54991  0.56258  1.0000
  N   N1        1.0  0.64024  0.62630  0.40830  1.0000
  N   N2        1.0  0.73501  0.53780  0.36409  1.0000
  O   O1        1.0  0.49981  0.44600  0.41437  1.0000
  H   H10       1.0  0.45302  0.38933  0.39940  1.0000
  O   O2        1.0  0.39974  0.64390  0.35149  1.0000
  O   O3        1.0  0.87269  0.74240  0.38209  1.0000
  O   O4        1.0  0.89473  0.63700  0.28632  1.0000
  C   C12       1.0  0.97734  0.09260  0.38803  1.0000
  C   C13       1.0  0.05938  0.20540  0.40985  1.0000
  H   H11       1.0  0.04113  0.29744  0.37462  1.0000
  H   H12       1.0  0.07676  0.24759  0.46126  1.0000
  C   C14       1.0  0.35563  0.14350  0.32804  1.0000
  C   C15       1.0  0.27939  0.01740  0.31285  1.0000
  H   H13       1.0  0.23276  0.02704  0.25978  1.0000
  H   H14       1.0  0.30584  0.90861  0.31974  1.0000
  C   C16       1.0  0.15725  0.11970  0.34718  1.0000
  H   H15       1.0  0.12000  0.16587  0.29942  1.0000
  C   C17       1.0  0.21099  0.04400  0.46902  1.0000
  C   C18       1.0  0.27154  0.98890  0.44078  1.0000
  C   C19       1.0  0.35075  0.90040  0.48681  1.0000
  H   H16       1.0  0.39143  0.86252  0.46813  1.0000
  C   C20       1.0  0.36569  0.87170  0.56176  1.0000
  H   H17       1.0  0.41801  0.81346  0.59452  1.0000
  C   C21       1.0  0.30446  0.92780  0.58968  1.0000
  H   H18       1.0  0.31730  0.90640  0.64062  1.0000
  C   C22       1.0  0.22568  0.01390  0.54409  1.0000
  H   H19       1.0  0.18447  0.04991  0.56258  1.0000
  N   N3        1.0  0.14024  0.12630  0.40830  1.0000
  N   N4        1.0  0.23501  0.03780  0.36409  1.0000
  O   O5        1.0  0.99981  0.94600  0.41437  1.0000
  H   H20       1.0  0.95302  0.88933  0.39940  1.0000
  O   O6        1.0  0.89974  0.14390  0.35149  1.0000
  O   O7        1.0  0.37269  0.24240  0.38209  1.0000
  O   O8        1.0  0.39473  0.13700  0.28632  1.0000
  C   C23       1.0  0.52266  0.59260  0.11197  1.0000
  C   C24       1.0  0.44062  0.70540  0.09015  1.0000
  H   H21       1.0  0.45887  0.79744  0.12538  1.0000
  H   H22       1.0  0.42324  0.74759  0.03874  1.0000
  C   C25       1.0  0.14437  0.64350  0.17196  1.0000
  C   C26       1.0  0.22061  0.51740  0.18715  1.0000
  H   H23       1.0  0.26724  0.52704  0.24022  1.0000
  H   H24       1.0  0.19416  0.40861  0.18026  1.0000
  C   C27       1.0  0.34275  0.61970  0.15282  1.0000
  H   H25       1.0  0.38000  0.66587  0.20058  1.0000
  C   C28       1.0  0.28901  0.54400  0.03098  1.0000
  C   C29       1.0  0.22846  0.48890  0.05922  1.0000
  C   C30       1.0  0.14925  0.40040  0.01319  1.0000
  H   H26       1.0  0.10857  0.36252  0.03187  1.0000
  C   C31       1.0  0.13431  0.37170  0.93824  1.0000
  H   H27       1.0  0.08199  0.31346  0.90548  1.0000
  C   C32       1.0  0.19554  0.42780  0.91032  1.0000
  H   H28       1.0  0.18270  0.40640  0.85938  1.0000
  C   C33       1.0  0.27432  0.51390  0.95591  1.0000
  H   H29       1.0  0.31553  0.54991  0.93742  1.0000
  N   N5        1.0  0.35976  0.62630  0.09170  1.0000
  N   N6        1.0  0.26499  0.53780  0.13591  1.0000
  O   O9        1.0  0.50019  0.44600  0.08563  1.0000
  H   H30       1.0  0.54698  0.38933  0.10060  1.0000
  O   O10       1.0  0.60026  0.64390  0.14851  1.0000
  O   O11       1.0  0.12731  0.74240  0.11791  1.0000
  O   O12       1.0  0.10527  0.63700  0.21368  1.0000
  C   C34       1.0  0.02266  0.09260  0.11197  1.0000
  C   C35       1.0  0.94062  0.20540  0.09015  1.0000
  H   H31       1.0  0.95887  0.29744  0.12538  1.0000
  H   H32       1.0  0.92324  0.24759  0.03874  1.0000
  C   C36       1.0  0.64437  0.14350  0.17196  1.0000
  C   C37       1.0  0.72061  0.01740  0.18715  1.0000
  H   H33       1.0  0.76724  0.02704  0.24022  1.0000
  H   H34       1.0  0.69416  0.90861  0.18026  1.0000
  C   C38       1.0  0.84275  0.11970  0.15282  1.0000
  H   H35       1.0  0.88000  0.16587  0.20058  1.0000
  C   C39       1.0  0.78901  0.04400  0.03098  1.0000
  C   C40       1.0  0.72846  0.98890  0.05922  1.0000
  C   C41       1.0  0.64925  0.90040  0.01319  1.0000
  H   H36       1.0  0.60857  0.86252  0.03187  1.0000
  C   C42       1.0  0.63431  0.87170  0.93824  1.0000
  H   H37       1.0  0.58199  0.81346  0.90548  1.0000
  C   C43       1.0  0.69554  0.92780  0.91032  1.0000
  H   H38       1.0  0.68270  0.90640  0.85938  1.0000
  C   C44       1.0  0.77432  0.01390  0.95591  1.0000
  H   H39       1.0  0.81553  0.04991  0.93742  1.0000
  N   N7        1.0  0.85976  0.12630  0.09170  1.0000
  N   N8        1.0  0.76499  0.03780  0.13591  1.0000
  O   O13       1.0  0.00019  0.94600  0.08563  1.0000
  H   H40       1.0  0.04698  0.88933  0.10060  1.0000
  O   O14       1.0  0.10026  0.14390  0.14851  1.0000
  O   O15       1.0  0.62731  0.24240  0.11791  1.0000
  O   O16       1.0  0.60527  0.13700  0.21368  1.0000
  N   N9        1.0  0.35976  0.37370  0.59170  1.0000
  N   N10       1.0  0.26499  0.46220  0.63591  1.0000
  O   O17       1.0  0.50019  0.55400  0.58563  1.0000
  H   H41       1.0  0.54698  0.61067  0.60060  1.0000
  O   O18       1.0  0.60026  0.35610  0.64851  1.0000
  O   O19       1.0  0.12731  0.25760  0.61791  1.0000
  O   O20       1.0  0.10527  0.36300  0.71368  1.0000
  C   C45       1.0  0.52266  0.40740  0.61197  1.0000
  C   C46       1.0  0.44062  0.29460  0.59015  1.0000
  H   H42       1.0  0.45887  0.20256  0.62538  1.0000
  H   H43       1.0  0.42324  0.25241  0.53874  1.0000
  C   C47       1.0  0.14437  0.35650  0.67196  1.0000
  C   C48       1.0  0.22061  0.48260  0.68715  1.0000
  H   H44       1.0  0.26724  0.47296  0.74022  1.0000
  H   H45       1.0  0.19416  0.59139  0.68026  1.0000
  C   C49       1.0  0.34275  0.38030  0.65282  1.0000
  H   H46       1.0  0.38000  0.33413  0.70058  1.0000
  C   C50       1.0  0.28901  0.45600  0.53098  1.0000
  C   C51       1.0  0.22846  0.51110  0.55922  1.0000
  C   C52       1.0  0.14925  0.59960  0.51319  1.0000
  H   H47       1.0  0.10857  0.63748  0.53187  1.0000
  C   C53       1.0  0.13431  0.62830  0.43824  1.0000
  H   H48       1.0  0.08199  0.68654  0.40548  1.0000
  C   C54       1.0  0.19554  0.57220  0.41032  1.0000
  H   H49       1.0  0.18270  0.59360  0.35938  1.0000
  C   C55       1.0  0.27432  0.48610  0.45591  1.0000
  H   H50       1.0  0.31553  0.45009  0.43742  1.0000
  C   C56       1.0  0.02266  0.90740  0.61197  1.0000
  C   C57       1.0  0.94062  0.79460  0.59015  1.0000
  H   H51       1.0  0.95887  0.70256  0.62538  1.0000
  H   H52       1.0  0.92324  0.75241  0.53874  1.0000
  C   C58       1.0  0.64437  0.85650  0.67196  1.0000
  C   C59       1.0  0.72061  0.98260  0.68715  1.0000
  H   H53       1.0  0.76724  0.97296  0.74022  1.0000
  H   H54       1.0  0.69416  0.09139  0.68026  1.0000
  C   C60       1.0  0.84275  0.88030  0.65282  1.0000
  H   H55       1.0  0.88000  0.83413  0.70058  1.0000
  C   C61       1.0  0.78901  0.95600  0.53098  1.0000
  C   C62       1.0  0.72846  0.01110  0.55922  1.0000
  C   C63       1.0  0.64925  0.09960  0.51319  1.0000
  H   H56       1.0  0.60857  0.13748  0.53187  1.0000
  C   C64       1.0  0.63431  0.12830  0.43824  1.0000
  H   H57       1.0  0.58199  0.18654  0.40548  1.0000
  C   C65       1.0  0.69554  0.07220  0.41032  1.0000
  H   H58       1.0  0.68270  0.09360  0.35938  1.0000
  C   C66       1.0  0.77432  0.98610  0.45591  1.0000
  H   H59       1.0  0.81553  0.95009  0.43742  1.0000
  N   N11       1.0  0.85976  0.87370  0.59170  1.0000
  N   N12       1.0  0.76499  0.96220  0.63591  1.0000
  O   O21       1.0  0.00019  0.05400  0.58563  1.0000
  H   H60       1.0  0.04698  0.11067  0.60060  1.0000
  O   O22       1.0  0.10026  0.85610  0.64851  1.0000
  O   O23       1.0  0.62731  0.75760  0.61791  1.0000
  O   O24       1.0  0.60527  0.86300  0.71368  1.0000
  C   C67       1.0  0.47734  0.40740  0.88803  1.0000
  C   C68       1.0  0.55938  0.29460  0.90985  1.0000
  H   H61       1.0  0.54113  0.20256  0.87462  1.0000
  H   H62       1.0  0.57676  0.25241  0.96126  1.0000
  C   C69       1.0  0.85563  0.35650  0.82804  1.0000
  C   C70       1.0  0.77939  0.48260  0.81285  1.0000
  H   H63       1.0  0.73276  0.47296  0.75978  1.0000
  H   H64       1.0  0.80584  0.59139  0.81974  1.0000
  C   C71       1.0  0.65725  0.38030  0.84718  1.0000
  H   H65       1.0  0.62000  0.33413  0.79942  1.0000
  C   C72       1.0  0.71099  0.45600  0.96902  1.0000
  C   C73       1.0  0.77154  0.51110  0.94078  1.0000
  C   C74       1.0  0.85075  0.59960  0.98681  1.0000
  H   H66       1.0  0.89143  0.63748  0.96813  1.0000
  C   C75       1.0  0.86569  0.62830  0.06176  1.0000
  H   H67       1.0  0.91801  0.68654  0.09452  1.0000
  C   C76       1.0  0.80446  0.57220  0.08968  1.0000
  H   H68       1.0  0.81730  0.59360  0.14062  1.0000
  C   C77       1.0  0.72568  0.48610  0.04409  1.0000
  H   H69       1.0  0.68447  0.45009  0.06258  1.0000
  N   N13       1.0  0.64024  0.37370  0.90830  1.0000
  N   N14       1.0  0.73501  0.46220  0.86409  1.0000
  O   O25       1.0  0.49981  0.55400  0.91437  1.0000
  H   H70       1.0  0.45302  0.61067  0.89940  1.0000
  O   O26       1.0  0.39974  0.35610  0.85149  1.0000
  O   O27       1.0  0.87269  0.25760  0.88209  1.0000
  O   O28       1.0  0.89473  0.36300  0.78632  1.0000
  C   C78       1.0  0.97734  0.90740  0.88803  1.0000
  C   C79       1.0  0.05938  0.79460  0.90985  1.0000
  H   H71       1.0  0.04113  0.70256  0.87462  1.0000
  H   H72       1.0  0.07676  0.75241  0.96126  1.0000
  C   C80       1.0  0.35563  0.85650  0.82804  1.0000
  C   C81       1.0  0.27939  0.98260  0.81285  1.0000
  H   H73       1.0  0.23276  0.97296  0.75978  1.0000
  H   H74       1.0  0.30584  0.09139  0.81974  1.0000
  C   C82       1.0  0.15725  0.88030  0.84718  1.0000
  H   H75       1.0  0.12000  0.83413  0.79942  1.0000
  C   C83       1.0  0.21099  0.95600  0.96902  1.0000
  C   C84       1.0  0.27154  0.01110  0.94078  1.0000
  C   C85       1.0  0.35075  0.09960  0.98681  1.0000
  H   H76       1.0  0.39143  0.13748  0.96813  1.0000
  C   C86       1.0  0.36569  0.12830  0.06176  1.0000
  H   H77       1.0  0.41801  0.18654  0.09452  1.0000
  C   C87       1.0  0.30446  0.07220  0.08968  1.0000
  H   H78       1.0  0.31730  0.09360  0.14062  1.0000
  C   C88       1.0  0.22568  0.98610  0.04409  1.0000
  H   H79       1.0  0.18447  0.95009  0.06258  1.0000
  N   N15       1.0  0.14024  0.87370  0.90830  1.0000
  N   N16       1.0  0.23501  0.96220  0.86409  1.0000
  O   O29       1.0  0.99981  0.05400  0.91437  1.0000
  H   H80       1.0  0.95302  0.11067  0.89940  1.0000
  O   O30       1.0  0.89974  0.85610  0.85149  1.0000
  O   O31       1.0  0.37269  0.75760  0.88209  1.0000
  O   O32       1.0  0.39473  0.86300  0.78632  1.0000
