data_image0
_chemical_formula_structural       S2O5C9HC5HC4HC5HC2HCOC2OCOHO2H2CHOC3H2COCHOHCHC2OS2O2S2O8HC5HC2HC2HC4HC2HC2HC2S2O8HC5HC2HC2HC4HC2HC2HC3OHOCOCH2COH2S2CO3CO4C5HC2HS2O3COC2HOC5HC5HC4HC2HC2HC3HC3HC4HC2HC2HC2S2O8HC5HC2HC2HC4HC2HC2HC2S2O8HC5HC2HIn4
_chemical_formula_sum              "S16 O64 C152 H56 In4"
_cell_length_a       37.127
_cell_length_b       13.413
_cell_length_c       17.808
_cell_angle_alpha    90
_cell_angle_beta     90
_cell_angle_gamma    90

_space_group_name_H-M_alt    "P 1"
_space_group_IT_number       1

loop_
  _space_group_symop_operation_xyz
  'x, y, z'

loop_
  _atom_site_type_symbol
  _atom_site_label
  _atom_site_symmetry_multiplicity
  _atom_site_fract_x
  _atom_site_fract_y
  _atom_site_fract_z
  _atom_site_occupancy
  S   S1        1.0  0.04452  0.63076  0.31127  1.0000
  S   S2        1.0  0.04260  0.43232  0.23919  1.0000
  O   O1        1.0  0.11999  0.94000  0.30290  1.0000
  O   O2        1.0  0.17312  0.94840  0.36140  1.0000
  O   O3        1.0  0.22992  0.63430  0.44749  1.0000
  O   O4        1.0  0.20661  0.48830  0.41803  1.0000
  O   O5        1.0  0.19615  0.53220  0.08140  1.0000
  C   C1        1.0  0.98196  0.53340  0.27570  1.0000
  C   C2        1.0  0.91384  0.57490  0.28970  1.0000
  C   C3        1.0  0.91466  0.48380  0.25740  1.0000
  C   C4        1.0  0.88481  0.42330  0.22930  1.0000
  C   C5        1.0  0.01804  0.53340  0.27570  1.0000
  C   C6        1.0  0.08616  0.57490  0.28970  1.0000
  C   C7        1.0  0.08534  0.48380  0.25740  1.0000
  C   C8        1.0  0.11519  0.42330  0.22930  1.0000
  C   C9        1.0  0.14171  0.46240  0.18040  1.0000
  H   H1        1.0  0.14135  0.52978  0.16809  1.0000
  C   C10       1.0  0.16775  0.40230  0.15120  1.0000
  C   C11       1.0  0.16880  0.30100  0.16810  1.0000
  C   C12       1.0  0.85829  0.46240  0.18040  1.0000
  C   C13       1.0  0.14297  0.26080  0.21490  1.0000
  C   C14       1.0  0.11662  0.32210  0.24460  1.0000
  H   H2        1.0  0.09926  0.29443  0.27593  1.0000
  C   C15       1.0  0.88187  0.63140  0.31460  1.0000
  C   C16       1.0  0.14418  0.15200  0.23280  1.0000
  C   C17       1.0  0.11813  0.63140  0.31460  1.0000
  C   C18       1.0  0.11867  0.73470  0.30980  1.0000
  H   H3        1.0  0.09924  0.76805  0.28849  1.0000
  C   C19       1.0  0.14796  0.78880  0.33650  1.0000
  C   C20       1.0  0.17663  0.73950  0.36980  1.0000
  C   C21       1.0  0.19579  0.44090  0.09820  1.0000
  C   C22       1.0  0.17623  0.63590  0.37520  1.0000
  C   C23       1.0  0.14730  0.58280  0.34770  1.0000
  H   H4        1.0  0.14723  0.51366  0.35137  1.0000
  C   C24       1.0  0.14783  0.90270  0.33320  1.0000
  C   C25       1.0  0.20569  0.58380  0.41520  1.0000
  H   H5        1.0  0.19608  0.77553  0.38847  1.0000
  C   C26       1.0  0.85270  0.58280  0.34770  1.0000
  O   O6        1.0  0.21896  0.38340  0.07010  1.0000
  C   C27       1.0  0.85204  0.78880  0.33650  1.0000
  C   C28       1.0  0.82337  0.73950  0.36980  1.0000
  O   O7        1.0  0.16713  0.09930  0.20550  1.0000
  C   C29       1.0  0.79431  0.58380  0.41520  1.0000
  O   O8        1.0  0.87967  0.12170  0.27920  1.0000
  H   H6        1.0  0.87716  0.06175  0.28638  1.0000
  O   O9        1.0  0.12033  0.12170  0.27920  1.0000
  O   O10       1.0  0.77008  0.63430  0.44749  1.0000
  H   H7        1.0  0.12284  0.06175  0.28638  1.0000
  H   H8        1.0  0.80392  0.77553  0.38847  1.0000
  C   C30       1.0  0.85217  0.90270  0.33320  1.0000
  H   H9        1.0  0.85865  0.52978  0.16809  1.0000
  O   O11       1.0  0.79339  0.48830  0.41803  1.0000
  C   C31       1.0  0.83225  0.40230  0.15120  1.0000
  C   C32       1.0  0.83120  0.30100  0.16810  1.0000
  C   C33       1.0  0.82377  0.63590  0.37520  1.0000
  H   H10       1.0  0.85277  0.51366  0.35137  1.0000
  H   H11       1.0  0.81321  0.26072  0.14806  1.0000
  C   C34       1.0  0.85703  0.26080  0.21490  1.0000
  O   O12       1.0  0.83287  0.09930  0.20550  1.0000
  C   C35       1.0  0.88338  0.32210  0.24460  1.0000
  H   H12       1.0  0.18679  0.26072  0.14806  1.0000
  O   O13       1.0  0.80385  0.53220  0.08140  1.0000
  H   H13       1.0  0.90074  0.29443  0.27593  1.0000
  C   C36       1.0  0.80421  0.44090  0.09820  1.0000
  H   H14       1.0  0.90076  0.76805  0.28849  1.0000
  C   C37       1.0  0.85582  0.15200  0.23280  1.0000
  C   C38       1.0  0.88133  0.73470  0.30980  1.0000
  O   O14       1.0  0.78104  0.38340  0.07010  1.0000
  S   S3        1.0  0.95548  0.63076  0.31127  1.0000
  S   S4        1.0  0.95740  0.43232  0.23919  1.0000
  O   O15       1.0  0.88001  0.94000  0.30290  1.0000
  O   O16       1.0  0.82688  0.94840  0.36140  1.0000
  S   S5        1.0  0.45548  0.36924  0.81127  1.0000
  S   S6        1.0  0.45740  0.56768  0.73919  1.0000
  O   O17       1.0  0.38001  0.06000  0.80290  1.0000
  O   O18       1.0  0.32688  0.05160  0.86140  1.0000
  O   O19       1.0  0.27008  0.36570  0.94749  1.0000
  O   O20       1.0  0.29339  0.51170  0.91803  1.0000
  O   O21       1.0  0.30385  0.46780  0.58140  1.0000
  O   O22       1.0  0.28104  0.61660  0.57010  1.0000
  O   O23       1.0  0.33287  0.90070  0.70550  1.0000
  O   O24       1.0  0.37967  0.87830  0.77920  1.0000
  H   H15       1.0  0.37716  0.93825  0.78638  1.0000
  C   C39       1.0  0.48196  0.46660  0.77570  1.0000
  C   C40       1.0  0.41384  0.42510  0.78970  1.0000
  C   C41       1.0  0.41466  0.51620  0.75740  1.0000
  C   C42       1.0  0.38481  0.57670  0.72930  1.0000
  C   C43       1.0  0.35829  0.53760  0.68040  1.0000
  H   H16       1.0  0.35865  0.47022  0.66809  1.0000
  C   C44       1.0  0.33225  0.59770  0.65120  1.0000
  C   C45       1.0  0.33120  0.69900  0.66810  1.0000
  H   H17       1.0  0.31321  0.73928  0.64806  1.0000
  C   C46       1.0  0.35703  0.73920  0.71490  1.0000
  C   C47       1.0  0.38338  0.67790  0.74460  1.0000
  H   H18       1.0  0.40074  0.70557  0.77593  1.0000
  C   C48       1.0  0.30421  0.55910  0.59820  1.0000
  C   C49       1.0  0.35582  0.84800  0.73280  1.0000
  C   C50       1.0  0.38187  0.36860  0.81460  1.0000
  C   C51       1.0  0.38133  0.26530  0.80980  1.0000
  H   H19       1.0  0.40076  0.23195  0.78849  1.0000
  C   C52       1.0  0.35204  0.21120  0.83650  1.0000
  C   C53       1.0  0.32337  0.26050  0.86980  1.0000
  H   H20       1.0  0.30392  0.22447  0.88847  1.0000
  C   C54       1.0  0.32377  0.36410  0.87520  1.0000
  C   C55       1.0  0.35270  0.41720  0.84770  1.0000
  H   H21       1.0  0.35277  0.48634  0.85137  1.0000
  C   C56       1.0  0.35217  0.09730  0.83320  1.0000
  C   C57       1.0  0.29431  0.41620  0.91520  1.0000
  S   S7        1.0  0.54452  0.36924  0.81127  1.0000
  S   S8        1.0  0.54260  0.56768  0.73919  1.0000
  O   O25       1.0  0.61999  0.06000  0.80290  1.0000
  O   O26       1.0  0.67312  0.05160  0.86140  1.0000
  O   O27       1.0  0.72992  0.36570  0.94749  1.0000
  O   O28       1.0  0.70661  0.51170  0.91803  1.0000
  O   O29       1.0  0.69615  0.46780  0.58140  1.0000
  O   O30       1.0  0.71896  0.61660  0.57010  1.0000
  O   O31       1.0  0.66713  0.90070  0.70550  1.0000
  O   O32       1.0  0.62033  0.87830  0.77920  1.0000
  H   H22       1.0  0.62284  0.93825  0.78638  1.0000
  C   C58       1.0  0.51804  0.46660  0.77570  1.0000
  C   C59       1.0  0.58616  0.42510  0.78970  1.0000
  C   C60       1.0  0.58534  0.51620  0.75740  1.0000
  C   C61       1.0  0.61519  0.57670  0.72930  1.0000
  C   C62       1.0  0.64171  0.53760  0.68040  1.0000
  H   H23       1.0  0.64135  0.47022  0.66809  1.0000
  C   C63       1.0  0.66775  0.59770  0.65120  1.0000
  C   C64       1.0  0.66880  0.69900  0.66810  1.0000
  H   H24       1.0  0.68679  0.73928  0.64806  1.0000
  C   C65       1.0  0.64297  0.73920  0.71490  1.0000
  C   C66       1.0  0.61662  0.67790  0.74460  1.0000
  H   H25       1.0  0.59926  0.70557  0.77593  1.0000
  C   C67       1.0  0.69579  0.55910  0.59820  1.0000
  C   C68       1.0  0.64418  0.84800  0.73280  1.0000
  C   C69       1.0  0.61813  0.36860  0.81460  1.0000
  C   C70       1.0  0.61867  0.26530  0.80980  1.0000
  H   H26       1.0  0.59924  0.23195  0.78849  1.0000
  C   C71       1.0  0.64796  0.21120  0.83650  1.0000
  C   C72       1.0  0.67663  0.26050  0.86980  1.0000
  H   H27       1.0  0.69608  0.22447  0.88847  1.0000
  C   C73       1.0  0.67623  0.36410  0.87520  1.0000
  C   C74       1.0  0.64730  0.41720  0.84770  1.0000
  H   H28       1.0  0.64723  0.48634  0.85137  1.0000
  C   C75       1.0  0.64783  0.09730  0.83320  1.0000
  C   C76       1.0  0.70569  0.41620  0.91520  1.0000
  C   C77       1.0  0.64418  0.15200  0.26720  1.0000
  O   O33       1.0  0.28104  0.38340  0.42990  1.0000
  H   H29       1.0  0.59924  0.76805  0.21151  1.0000
  O   O34       1.0  0.33287  0.09930  0.29450  1.0000
  C   C78       1.0  0.64796  0.78880  0.16350  1.0000
  O   O35       1.0  0.37967  0.12170  0.22080  1.0000
  C   C79       1.0  0.67663  0.73950  0.13020  1.0000
  H   H30       1.0  0.37716  0.06175  0.21362  1.0000
  H   H31       1.0  0.69608  0.77553  0.11153  1.0000
  C   C80       1.0  0.67623  0.63590  0.12480  1.0000
  O   O36       1.0  0.71896  0.38340  0.42990  1.0000
  H   H32       1.0  0.62284  0.06175  0.21362  1.0000
  H   H33       1.0  0.64723  0.51366  0.14863  1.0000
  S   S9        1.0  0.54452  0.63076  0.18873  1.0000
  S   S10       1.0  0.54260  0.43232  0.26081  1.0000
  C   C81       1.0  0.64783  0.90270  0.16680  1.0000
  O   O37       1.0  0.61999  0.94000  0.19710  1.0000
  O   O38       1.0  0.67312  0.94840  0.13860  1.0000
  O   O39       1.0  0.72992  0.63430  0.05251  1.0000
  C   C82       1.0  0.70569  0.58380  0.08480  1.0000
  O   O40       1.0  0.70661  0.48830  0.08197  1.0000
  O   O41       1.0  0.66713  0.09930  0.29450  1.0000
  O   O42       1.0  0.62033  0.12170  0.22080  1.0000
  O   O43       1.0  0.69615  0.53220  0.41860  1.0000
  C   C83       1.0  0.51804  0.53340  0.22430  1.0000
  C   C84       1.0  0.58616  0.57490  0.21030  1.0000
  C   C85       1.0  0.58534  0.48380  0.24260  1.0000
  C   C86       1.0  0.61519  0.42330  0.27070  1.0000
  C   C87       1.0  0.64171  0.46240  0.31960  1.0000
  H   H34       1.0  0.64135  0.52978  0.33191  1.0000
  C   C88       1.0  0.66775  0.40230  0.34880  1.0000
  C   C89       1.0  0.66880  0.30100  0.33190  1.0000
  H   H35       1.0  0.68679  0.26072  0.35194  1.0000
  S   S11       1.0  0.45548  0.63076  0.18873  1.0000
  S   S12       1.0  0.45740  0.43232  0.26081  1.0000
  O   O44       1.0  0.38001  0.94000  0.19710  1.0000
  O   O45       1.0  0.32688  0.94840  0.13860  1.0000
  O   O46       1.0  0.27008  0.63430  0.05251  1.0000
  C   C90       1.0  0.61813  0.63140  0.18540  1.0000
  O   O47       1.0  0.29339  0.48830  0.08197  1.0000
  C   C91       1.0  0.61867  0.73470  0.19020  1.0000
  C   C92       1.0  0.61662  0.32210  0.25540  1.0000
  H   H36       1.0  0.31321  0.26072  0.35194  1.0000
  O   O48       1.0  0.30385  0.53220  0.41860  1.0000
  C   C93       1.0  0.48196  0.53340  0.22430  1.0000
  C   C94       1.0  0.41384  0.57490  0.21030  1.0000
  C   C95       1.0  0.41466  0.48380  0.24260  1.0000
  C   C96       1.0  0.38481  0.42330  0.27070  1.0000
  C   C97       1.0  0.35829  0.46240  0.31960  1.0000
  H   H37       1.0  0.35865  0.52978  0.33191  1.0000
  C   C98       1.0  0.33225  0.40230  0.34880  1.0000
  C   C99       1.0  0.33120  0.30100  0.33190  1.0000
  C   C100      1.0  0.64730  0.58280  0.15230  1.0000
  C   C101      1.0  0.35703  0.26080  0.28510  1.0000
  C   C102      1.0  0.38338  0.32210  0.25540  1.0000
  H   H38       1.0  0.40074  0.29443  0.22407  1.0000
  C   C103      1.0  0.30421  0.44090  0.40180  1.0000
  C   C104      1.0  0.35582  0.15200  0.26720  1.0000
  C   C105      1.0  0.38187  0.63140  0.18540  1.0000
  C   C106      1.0  0.38133  0.73470  0.19020  1.0000
  H   H39       1.0  0.40076  0.76805  0.21151  1.0000
  C   C107      1.0  0.35204  0.78880  0.16350  1.0000
  C   C108      1.0  0.32337  0.73950  0.13020  1.0000
  H   H40       1.0  0.30392  0.77553  0.11153  1.0000
  C   C109      1.0  0.32377  0.63590  0.12480  1.0000
  C   C110      1.0  0.35270  0.58280  0.15230  1.0000
  H   H41       1.0  0.35277  0.51366  0.14863  1.0000
  C   C111      1.0  0.35217  0.90270  0.16680  1.0000
  C   C112      1.0  0.29431  0.58380  0.08480  1.0000
  C   C113      1.0  0.64297  0.26080  0.28510  1.0000
  H   H42       1.0  0.59926  0.29443  0.22407  1.0000
  C   C114      1.0  0.69579  0.44090  0.40180  1.0000
  C   C115      1.0  0.14297  0.73920  0.78510  1.0000
  C   C116      1.0  0.11662  0.67790  0.75540  1.0000
  H   H43       1.0  0.09926  0.70557  0.72407  1.0000
  C   C117      1.0  0.19579  0.55910  0.90180  1.0000
  C   C118      1.0  0.14418  0.84800  0.76720  1.0000
  C   C119      1.0  0.11813  0.36860  0.68540  1.0000
  C   C120      1.0  0.11867  0.26530  0.69020  1.0000
  H   H44       1.0  0.09924  0.23195  0.71151  1.0000
  C   C121      1.0  0.14796  0.21120  0.66350  1.0000
  C   C122      1.0  0.17663  0.26050  0.63020  1.0000
  H   H45       1.0  0.19608  0.22447  0.61153  1.0000
  C   C123      1.0  0.17623  0.36410  0.62480  1.0000
  C   C124      1.0  0.14730  0.41720  0.65230  1.0000
  H   H46       1.0  0.14723  0.48634  0.64863  1.0000
  C   C125      1.0  0.14783  0.09730  0.66680  1.0000
  C   C126      1.0  0.20569  0.41620  0.58480  1.0000
  S   S13       1.0  0.95548  0.36924  0.68873  1.0000
  S   S14       1.0  0.95740  0.56768  0.76081  1.0000
  O   O49       1.0  0.88001  0.06000  0.69710  1.0000
  O   O50       1.0  0.82688  0.05160  0.63860  1.0000
  O   O51       1.0  0.77008  0.36570  0.55251  1.0000
  O   O52       1.0  0.79339  0.51170  0.58197  1.0000
  O   O53       1.0  0.80385  0.46780  0.91860  1.0000
  O   O54       1.0  0.78104  0.61660  0.92990  1.0000
  O   O55       1.0  0.83287  0.90070  0.79450  1.0000
  O   O56       1.0  0.87967  0.87830  0.72080  1.0000
  H   H47       1.0  0.87716  0.93825  0.71362  1.0000
  C   C127      1.0  0.98196  0.46660  0.72430  1.0000
  C   C128      1.0  0.91384  0.42510  0.71030  1.0000
  C   C129      1.0  0.91466  0.51620  0.74260  1.0000
  C   C130      1.0  0.88481  0.57670  0.77070  1.0000
  C   C131      1.0  0.85829  0.53760  0.81960  1.0000
  H   H48       1.0  0.85865  0.47022  0.83191  1.0000
  C   C132      1.0  0.83225  0.59770  0.84880  1.0000
  C   C133      1.0  0.83120  0.69900  0.83190  1.0000
  H   H49       1.0  0.81321  0.73928  0.85194  1.0000
  C   C134      1.0  0.85703  0.73920  0.78510  1.0000
  C   C135      1.0  0.88338  0.67790  0.75540  1.0000
  H   H50       1.0  0.90074  0.70557  0.72407  1.0000
  C   C136      1.0  0.80421  0.55910  0.90180  1.0000
  C   C137      1.0  0.85582  0.84800  0.76720  1.0000
  C   C138      1.0  0.88187  0.36860  0.68540  1.0000
  C   C139      1.0  0.88133  0.26530  0.69020  1.0000
  H   H51       1.0  0.90076  0.23195  0.71151  1.0000
  C   C140      1.0  0.85204  0.21120  0.66350  1.0000
  C   C141      1.0  0.82337  0.26050  0.63020  1.0000
  H   H52       1.0  0.80392  0.22447  0.61153  1.0000
  C   C142      1.0  0.82377  0.36410  0.62480  1.0000
  C   C143      1.0  0.85270  0.41720  0.65230  1.0000
  H   H53       1.0  0.85277  0.48634  0.64863  1.0000
  C   C144      1.0  0.85217  0.09730  0.66680  1.0000
  C   C145      1.0  0.79431  0.41620  0.58480  1.0000
  S   S15       1.0  0.04452  0.36924  0.68873  1.0000
  S   S16       1.0  0.04260  0.56768  0.76081  1.0000
  O   O57       1.0  0.11999  0.06000  0.69710  1.0000
  O   O58       1.0  0.17312  0.05160  0.63860  1.0000
  O   O59       1.0  0.22992  0.36570  0.55251  1.0000
  O   O60       1.0  0.20661  0.51170  0.58197  1.0000
  O   O61       1.0  0.19615  0.46780  0.91860  1.0000
  O   O62       1.0  0.21896  0.61660  0.92990  1.0000
  O   O63       1.0  0.16713  0.90070  0.79450  1.0000
  O   O64       1.0  0.12033  0.87830  0.72080  1.0000
  H   H54       1.0  0.12284  0.93825  0.71362  1.0000
  C   C146      1.0  0.01804  0.46660  0.72430  1.0000
  C   C147      1.0  0.08616  0.42510  0.71030  1.0000
  C   C148      1.0  0.08534  0.51620  0.74260  1.0000
  C   C149      1.0  0.11519  0.57670  0.77070  1.0000
  C   C150      1.0  0.14171  0.53760  0.81960  1.0000
  H   H55       1.0  0.14135  0.47022  0.83191  1.0000
  C   C151      1.0  0.16775  0.59770  0.84880  1.0000
  C   C152      1.0  0.16880  0.69900  0.83190  1.0000
  H   H56       1.0  0.18679  0.73928  0.85194  1.0000
  In  In1       1.0  0.24446  0.50000  0.00000  1.0000
  In  In2       1.0  0.25554  0.50000  0.50000  1.0000
  In  In3       1.0  0.75554  0.50000  0.00000  1.0000
  In  In4       1.0  0.74446  0.50000  0.50000  1.0000
