data_image0
_chemical_formula_structural       N3C2H2C2HCHCHCHCHCH2CHOHN3C2H2C2HCHCHCHCHCH2CHOHN3C2H2C2HCHCHCHCHCH2CHOHN3C2H2C2HCHCHCHCHCH2CHOHMo4OMoO2MoO11Ag2Mo4OAgO2AgO4Mo4O7Mo2
_chemical_formula_sum              "N12 C40 H44 O32 Mo16 Ag4"
_cell_length_a       10.657
_cell_length_b       10.398
_cell_length_c       21.301
_cell_angle_alpha    90
_cell_angle_beta     119.84
_cell_angle_gamma    90

_space_group_name_H-M_alt    "P 1"
_space_group_IT_number       1

loop_
  _space_group_symop_operation_xyz
  'x, y, z'

loop_
  _atom_site_type_symbol
  _atom_site_label
  _atom_site_symmetry_multiplicity
  _atom_site_fract_x
  _atom_site_fract_y
  _atom_site_fract_z
  _atom_site_occupancy
  N   N1        1.0  0.06770  0.82200  0.84240  1.0000
  N   N2        1.0  0.06800  0.92570  0.93360  1.0000
  N   N3        1.0  0.18280  0.90240  0.87460  1.0000
  C   C1        1.0  0.25770  0.00890  0.79450  1.0000
  C   C2        1.0  0.17500  0.28210  0.62700  1.0000
  H   H1        1.0  0.22281  0.25504  0.60059  1.0000
  H   H2        1.0  0.07164  0.28341  0.59341  1.0000
  C   C3        1.0  0.20660  0.18860  0.68520  1.0000
  C   C4        1.0  0.30710  0.98880  0.74620  1.0000
  H   H3        1.0  0.35711  0.91355  0.74932  1.0000
  C   C5        1.0  0.00070  0.83940  0.87870  1.0000
  H   H4        1.0  0.91550  0.79720  0.86823  1.0000
  C   C6        1.0  0.18150  0.96320  0.92860  1.0000
  H   H5        1.0  0.24977  0.02328  0.95852  1.0000
  C   C7        1.0  0.18680  0.12310  0.78880  1.0000
  H   H6        1.0  0.15666  0.14115  0.82202  1.0000
  C   C8        1.0  0.28350  0.07810  0.69340  1.0000
  H   H7        1.0  0.32061  0.06290  0.66271  1.0000
  C   C9        1.0  0.29250  0.91260  0.85230  1.0000
  H   H8        1.0  0.30374  0.82920  0.83531  1.0000
  H   H9        1.0  0.38435  0.93517  0.89418  1.0000
  C   C10       1.0  0.15960  0.21060  0.73530  1.0000
  H   H10       1.0  0.10930  0.28567  0.73212  1.0000
  O   O1        1.0  0.22310  0.41130  0.65530  1.0000
  H   H11       1.0  0.21200  0.49400  0.63000  1.0000
  N   N4        1.0  0.93230  0.82200  0.65760  1.0000
  N   N5        1.0  0.93200  0.92570  0.56640  1.0000
  N   N6        1.0  0.81720  0.90240  0.62540  1.0000
  C   C11       1.0  0.74230  0.00890  0.70550  1.0000
  C   C12       1.0  0.82500  0.28210  0.87300  1.0000
  H   H12       1.0  0.77719  0.25504  0.89941  1.0000
  H   H13       1.0  0.92836  0.28341  0.90659  1.0000
  C   C13       1.0  0.79340  0.18860  0.81480  1.0000
  C   C14       1.0  0.69290  0.98880  0.75380  1.0000
  H   H14       1.0  0.64289  0.91355  0.75068  1.0000
  C   C15       1.0  0.99930  0.83940  0.62130  1.0000
  H   H15       1.0  0.08450  0.79720  0.63177  1.0000
  C   C16       1.0  0.81850  0.96320  0.57140  1.0000
  H   H16       1.0  0.75023  0.02328  0.54148  1.0000
  C   C17       1.0  0.81320  0.12310  0.71120  1.0000
  H   H17       1.0  0.84334  0.14115  0.67798  1.0000
  C   C18       1.0  0.71650  0.07810  0.80660  1.0000
  H   H18       1.0  0.67939  0.06290  0.83729  1.0000
  C   C19       1.0  0.70750  0.91260  0.64770  1.0000
  H   H19       1.0  0.69626  0.82920  0.66469  1.0000
  H   H20       1.0  0.61564  0.93517  0.60582  1.0000
  C   C20       1.0  0.84040  0.21060  0.76470  1.0000
  H   H21       1.0  0.89070  0.28567  0.76788  1.0000
  O   O2        1.0  0.77690  0.41130  0.84470  1.0000
  H   H22       1.0  0.78800  0.49400  0.87000  1.0000
  N   N7        1.0  0.93230  0.17800  0.15760  1.0000
  N   N8        1.0  0.93200  0.07430  0.06640  1.0000
  N   N9        1.0  0.81720  0.09760  0.12540  1.0000
  C   C21       1.0  0.74230  0.99110  0.20550  1.0000
  C   C22       1.0  0.82500  0.71790  0.37300  1.0000
  H   H23       1.0  0.77719  0.74496  0.39941  1.0000
  H   H24       1.0  0.92836  0.71659  0.40659  1.0000
  C   C23       1.0  0.79340  0.81140  0.31480  1.0000
  C   C24       1.0  0.69290  0.01120  0.25380  1.0000
  H   H25       1.0  0.64289  0.08645  0.25068  1.0000
  C   C25       1.0  0.99930  0.16060  0.12130  1.0000
  H   H26       1.0  0.08450  0.20280  0.13177  1.0000
  C   C26       1.0  0.81850  0.03680  0.07140  1.0000
  H   H27       1.0  0.75023  0.97672  0.04148  1.0000
  C   C27       1.0  0.81320  0.87690  0.21120  1.0000
  H   H28       1.0  0.84334  0.85885  0.17798  1.0000
  C   C28       1.0  0.71650  0.92190  0.30660  1.0000
  H   H29       1.0  0.67939  0.93710  0.33729  1.0000
  C   C29       1.0  0.70750  0.08740  0.14770  1.0000
  H   H30       1.0  0.69626  0.17080  0.16469  1.0000
  H   H31       1.0  0.61564  0.06483  0.10582  1.0000
  C   C30       1.0  0.84040  0.78940  0.26470  1.0000
  H   H32       1.0  0.89070  0.71433  0.26788  1.0000
  O   O3        1.0  0.77690  0.58870  0.34470  1.0000
  H   H33       1.0  0.78800  0.50600  0.37000  1.0000
  N   N10       1.0  0.06770  0.17800  0.34240  1.0000
  N   N11       1.0  0.06800  0.07430  0.43360  1.0000
  N   N12       1.0  0.18280  0.09760  0.37460  1.0000
  C   C31       1.0  0.25770  0.99110  0.29450  1.0000
  C   C32       1.0  0.17500  0.71790  0.12700  1.0000
  H   H34       1.0  0.22281  0.74496  0.10059  1.0000
  H   H35       1.0  0.07164  0.71659  0.09341  1.0000
  C   C33       1.0  0.20660  0.81140  0.18520  1.0000
  C   C34       1.0  0.30710  0.01120  0.24620  1.0000
  H   H36       1.0  0.35711  0.08645  0.24932  1.0000
  C   C35       1.0  0.00070  0.16060  0.37870  1.0000
  H   H37       1.0  0.91550  0.20280  0.36823  1.0000
  C   C36       1.0  0.18150  0.03680  0.42860  1.0000
  H   H38       1.0  0.24977  0.97672  0.45852  1.0000
  C   C37       1.0  0.18680  0.87690  0.28880  1.0000
  H   H39       1.0  0.15666  0.85885  0.32202  1.0000
  C   C38       1.0  0.28350  0.92190  0.19340  1.0000
  H   H40       1.0  0.32061  0.93710  0.16271  1.0000
  C   C39       1.0  0.29250  0.08740  0.35230  1.0000
  H   H41       1.0  0.30374  0.17080  0.33531  1.0000
  H   H42       1.0  0.38435  0.06483  0.39418  1.0000
  C   C40       1.0  0.15960  0.78940  0.23530  1.0000
  H   H43       1.0  0.10930  0.71433  0.23212  1.0000
  O   O4        1.0  0.22310  0.58870  0.15530  1.0000
  H   H44       1.0  0.21200  0.50600  0.13000  1.0000
  Mo  Mo1       1.0  0.52345  0.33480  0.98049  1.0000
  Mo  Mo2       1.0  0.80597  0.51003  0.06743  1.0000
  Mo  Mo3       1.0  0.31453  0.27562  0.06142  1.0000
  Mo  Mo4       1.0  0.40070  0.53635  0.85096  1.0000
  O   O5        1.0  0.44330  0.21620  0.00730  1.0000
  Mo  Mo5       1.0  0.31453  0.72438  0.56142  1.0000
  O   O6        1.0  0.50750  0.30270  0.13860  1.0000
  O   O7        1.0  0.58050  0.52790  0.96630  1.0000
  Mo  Mo6       1.0  0.40070  0.46365  0.35096  1.0000
  O   O8        1.0  0.34800  0.39510  0.89650  1.0000
  O   O9        1.0  0.44330  0.78380  0.50730  1.0000
  O   O10       1.0  0.68510  0.37170  0.07540  1.0000
  O   O11       1.0  0.23290  0.57040  0.77870  1.0000
  O   O12       1.0  0.50750  0.69730  0.63860  1.0000
  O   O13       1.0  0.58050  0.47210  0.46630  1.0000
  O   O14       1.0  0.34800  0.60490  0.39650  1.0000
  O   O15       1.0  0.68510  0.62830  0.57540  1.0000
  O   O16       1.0  0.23290  0.42960  0.27870  1.0000
  O   O17       1.0  0.81260  0.31830  0.53730  1.0000
  O   O18       1.0  0.81260  0.68170  0.03730  1.0000
  Ag  Ag1       1.0  1.00000  0.66588  0.75000  1.0000
  Ag  Ag2       1.0  0.00000  0.33412  0.25000  1.0000
  Mo  Mo7       1.0  0.47655  0.33480  0.51951  1.0000
  Mo  Mo8       1.0  0.19403  0.51003  0.43257  1.0000
  Mo  Mo9       1.0  0.68547  0.27562  0.43858  1.0000
  Mo  Mo10      1.0  0.59930  0.53635  0.64904  1.0000
  O   O19       1.0  0.55670  0.21620  0.49270  1.0000
  Ag  Ag3       1.0  0.00000  0.00000  0.00000  1.0000
  O   O20       1.0  0.49250  0.30270  0.36140  1.0000
  O   O21       1.0  0.41950  0.52790  0.53370  1.0000
  Ag  Ag4       1.0  1.00000  0.00000  0.50000  1.0000
  O   O22       1.0  0.65200  0.39510  0.60350  1.0000
  O   O23       1.0  0.31490  0.37170  0.42460  1.0000
  O   O24       1.0  0.76710  0.57040  0.72130  1.0000
  O   O25       1.0  0.18740  0.68170  0.46270  1.0000
  Mo  Mo11      1.0  0.47655  0.66520  0.01951  1.0000
  Mo  Mo12      1.0  0.19403  0.48997  0.93257  1.0000
  Mo  Mo13      1.0  0.68547  0.72438  0.93858  1.0000
  Mo  Mo14      1.0  0.59930  0.46365  0.14904  1.0000
  O   O26       1.0  0.55670  0.78380  0.99270  1.0000
  O   O27       1.0  0.49250  0.69730  0.86140  1.0000
  O   O28       1.0  0.41950  0.47210  0.03370  1.0000
  O   O29       1.0  0.65200  0.60490  0.10350  1.0000
  O   O30       1.0  0.31490  0.62830  0.92460  1.0000
  O   O31       1.0  0.76710  0.42960  0.22130  1.0000
  O   O32       1.0  0.18740  0.31830  0.96270  1.0000
  Mo  Mo15      1.0  0.52345  0.66520  0.48049  1.0000
  Mo  Mo16      1.0  0.80597  0.48997  0.56743  1.0000
