data_image0
_chemical_formula_structural       O2C2H2C2H2O3H2O2C2H2O3C2O2C2H2O2C2H2O5C2H2C2H2O3C2H2O2C2H2OC2H2O2C2H2O6C2H2C2H2O5C2H2O2C2H2C2OH2O2C2H2O3C2H2O4C2H2O2C2OH2O2C2H2O3C2H2O2C2H2Tm4Ni6
_chemical_formula_sum              "O60 C48 H48 Tm4 Ni6"
_cell_length_a       14.1712
_cell_length_b       14.1712
_cell_length_c       15.9715
_cell_angle_alpha    90
_cell_angle_beta     90
_cell_angle_gamma    120

_space_group_name_H-M_alt    "P 1"
_space_group_IT_number       1

loop_
  _space_group_symop_operation_xyz
  'x, y, z'

loop_
  _atom_site_type_symbol
  _atom_site_label
  _atom_site_symmetry_multiplicity
  _atom_site_fract_x
  _atom_site_fract_y
  _atom_site_fract_z
  _atom_site_occupancy
  O   O1        1.0  0.41720  0.61270  0.35280  1.0000
  O   O2        1.0  0.56310  0.61850  0.41180  1.0000
  C   C1        1.0  0.51840  0.64990  0.36140  1.0000
  C   C2        1.0  0.59270  0.74450  0.30740  1.0000
  H   H1        1.0  0.63527  0.80821  0.34208  1.0000
  H   H2        1.0  0.64263  0.72810  0.27787  1.0000
  C   C3        1.0  0.59270  0.84820  0.19260  1.0000
  C   C4        1.0  0.51840  0.86850  0.13860  1.0000
  H   H3        1.0  0.63527  0.82707  0.15792  1.0000
  H   H4        1.0  0.64263  0.91453  0.22213  1.0000
  O   O3        1.0  0.41720  0.80450  0.14720  1.0000
  O   O4        1.0  0.56310  0.94460  0.08820  1.0000
  O   O5        1.0  0.53160  0.76580  0.25000  1.0000
  H   H5        1.0  0.17293  0.80821  0.15792  1.0000
  H   H6        1.0  0.08547  0.72810  0.22213  1.0000
  O   O6        1.0  0.38730  0.80450  0.35280  1.0000
  O   O7        1.0  0.38150  0.94460  0.41180  1.0000
  C   C5        1.0  0.35010  0.86850  0.36140  1.0000
  C   C6        1.0  0.25550  0.84820  0.30740  1.0000
  H   H7        1.0  0.19179  0.82707  0.34208  1.0000
  H   H8        1.0  0.27190  0.91453  0.27787  1.0000
  O   O8        1.0  0.23420  0.76580  0.25000  1.0000
  O   O9        1.0  0.19550  0.61270  0.14720  1.0000
  O   O10       1.0  0.05540  0.61850  0.08820  1.0000
  C   C7        1.0  0.13150  0.64990  0.13860  1.0000
  C   C8        1.0  0.15180  0.74450  0.19260  1.0000
  O   O11       1.0  0.19550  0.58280  0.35280  1.0000
  O   O12       1.0  0.05540  0.43690  0.41180  1.0000
  C   C9        1.0  0.13150  0.48160  0.36140  1.0000
  C   C10       1.0  0.15180  0.40730  0.30740  1.0000
  H   H9        1.0  0.17293  0.36473  0.34208  1.0000
  H   H10       1.0  0.08547  0.35737  0.27787  1.0000
  O   O13       1.0  0.38730  0.58280  0.14720  1.0000
  O   O14       1.0  0.38150  0.43690  0.08820  1.0000
  C   C11       1.0  0.35010  0.48160  0.13860  1.0000
  C   C12       1.0  0.25550  0.40730  0.19260  1.0000
  H   H11       1.0  0.19179  0.36473  0.15792  1.0000
  H   H12       1.0  0.27190  0.35737  0.22213  1.0000
  O   O15       1.0  0.23420  0.46840  0.25000  1.0000
  O   O16       1.0  0.58280  0.19550  0.14720  1.0000
  O   O17       1.0  0.43690  0.05540  0.08820  1.0000
  O   O18       1.0  0.58280  0.38730  0.35280  1.0000
  O   O19       1.0  0.43690  0.38150  0.41180  1.0000
  C   C13       1.0  0.48160  0.35010  0.36140  1.0000
  C   C14       1.0  0.40730  0.25550  0.30740  1.0000
  H   H13       1.0  0.36473  0.19179  0.34208  1.0000
  H   H14       1.0  0.35737  0.27190  0.27787  1.0000
  C   C15       1.0  0.40730  0.15180  0.19260  1.0000
  C   C16       1.0  0.48160  0.13150  0.13860  1.0000
  H   H15       1.0  0.35737  0.08547  0.22213  1.0000
  H   H16       1.0  0.36473  0.17293  0.15792  1.0000
  O   O20       1.0  0.46840  0.23420  0.25000  1.0000
  O   O21       1.0  0.80450  0.38730  0.14720  1.0000
  O   O22       1.0  0.94460  0.38150  0.08820  1.0000
  C   C17       1.0  0.86850  0.35010  0.13860  1.0000
  C   C18       1.0  0.84820  0.25550  0.19260  1.0000
  H   H17       1.0  0.82707  0.19179  0.15792  1.0000
  H   H18       1.0  0.91453  0.27190  0.22213  1.0000
  O   O23       1.0  0.61270  0.19550  0.35280  1.0000
  O   O24       1.0  0.61850  0.05540  0.41180  1.0000
  C   C19       1.0  0.64990  0.13150  0.36140  1.0000
  C   C20       1.0  0.74450  0.15180  0.30740  1.0000
  H   H19       1.0  0.80821  0.17293  0.34208  1.0000
  H   H20       1.0  0.72810  0.08547  0.27787  1.0000
  O   O25       1.0  0.76580  0.23420  0.25000  1.0000
  C   C21       1.0  0.86850  0.51840  0.36140  1.0000
  C   C22       1.0  0.84820  0.59270  0.30740  1.0000
  H   H21       1.0  0.82707  0.63527  0.34208  1.0000
  H   H22       1.0  0.91453  0.64263  0.27787  1.0000
  O   O26       1.0  0.76580  0.53160  0.25000  1.0000
  O   O27       1.0  0.61270  0.41720  0.14720  1.0000
  C   C23       1.0  0.64990  0.51840  0.13860  1.0000
  C   C24       1.0  0.74450  0.59270  0.19260  1.0000
  H   H23       1.0  0.80821  0.63527  0.15792  1.0000
  H   H24       1.0  0.72810  0.64263  0.22213  1.0000
  O   O28       1.0  0.61850  0.56310  0.08820  1.0000
  O   O29       1.0  0.80450  0.41720  0.35280  1.0000
  O   O30       1.0  0.94460  0.56310  0.41180  1.0000
  O   O31       1.0  0.46840  0.23420  0.75000  1.0000
  O   O32       1.0  0.58280  0.38730  0.64720  1.0000
  O   O33       1.0  0.43690  0.38150  0.58820  1.0000
  C   C25       1.0  0.48160  0.35010  0.63860  1.0000
  C   C26       1.0  0.40730  0.25550  0.69260  1.0000
  H   H25       1.0  0.36473  0.19179  0.65792  1.0000
  H   H26       1.0  0.35737  0.27190  0.72213  1.0000
  C   C27       1.0  0.40730  0.15180  0.80740  1.0000
  C   C28       1.0  0.48160  0.13150  0.86140  1.0000
  H   H27       1.0  0.35737  0.08547  0.77787  1.0000
  H   H28       1.0  0.36473  0.17293  0.84208  1.0000
  O   O34       1.0  0.58280  0.19550  0.85280  1.0000
  O   O35       1.0  0.43690  0.05540  0.91180  1.0000
  O   O36       1.0  0.76580  0.23420  0.75000  1.0000
  O   O37       1.0  0.80450  0.38730  0.85280  1.0000
  O   O38       1.0  0.94460  0.38150  0.91180  1.0000
  C   C29       1.0  0.86850  0.35010  0.86140  1.0000
  C   C30       1.0  0.84820  0.25550  0.80740  1.0000
  H   H29       1.0  0.82707  0.19179  0.84208  1.0000
  H   H30       1.0  0.91453  0.27190  0.77787  1.0000
  O   O39       1.0  0.61270  0.19550  0.64720  1.0000
  O   O40       1.0  0.61850  0.05540  0.58820  1.0000
  C   C31       1.0  0.64990  0.13150  0.63860  1.0000
  C   C32       1.0  0.74450  0.15180  0.69260  1.0000
  H   H31       1.0  0.80821  0.17293  0.65792  1.0000
  H   H32       1.0  0.72810  0.08547  0.72213  1.0000
  C   C33       1.0  0.64990  0.51840  0.86140  1.0000
  C   C34       1.0  0.74450  0.59270  0.80740  1.0000
  O   O41       1.0  0.76580  0.53160  0.75000  1.0000
  H   H33       1.0  0.72810  0.64263  0.77787  1.0000
  H   H34       1.0  0.80821  0.63527  0.84208  1.0000
  O   O42       1.0  0.80450  0.41720  0.64720  1.0000
  O   O43       1.0  0.94460  0.56310  0.58820  1.0000
  C   C35       1.0  0.86850  0.51840  0.63860  1.0000
  C   C36       1.0  0.84820  0.59270  0.69260  1.0000
  H   H35       1.0  0.82707  0.63527  0.65792  1.0000
  H   H36       1.0  0.91453  0.64263  0.72213  1.0000
  O   O44       1.0  0.61270  0.41720  0.85280  1.0000
  O   O45       1.0  0.61850  0.56310  0.91180  1.0000
  O   O46       1.0  0.53160  0.76580  0.75000  1.0000
  C   C37       1.0  0.51840  0.86850  0.86140  1.0000
  C   C38       1.0  0.59270  0.84820  0.80740  1.0000
  H   H37       1.0  0.63527  0.82707  0.84208  1.0000
  H   H38       1.0  0.64263  0.91453  0.77787  1.0000
  O   O47       1.0  0.41720  0.80450  0.85280  1.0000
  O   O48       1.0  0.56310  0.94460  0.91180  1.0000
  O   O49       1.0  0.41720  0.61270  0.64720  1.0000
  O   O50       1.0  0.56310  0.61850  0.58820  1.0000
  C   C39       1.0  0.51840  0.64990  0.63860  1.0000
  C   C40       1.0  0.59270  0.74450  0.69260  1.0000
  H   H39       1.0  0.63527  0.80821  0.65792  1.0000
  H   H40       1.0  0.64263  0.72810  0.72213  1.0000
  O   O51       1.0  0.38730  0.80450  0.64720  1.0000
  O   O52       1.0  0.38150  0.94460  0.58820  1.0000
  C   C41       1.0  0.35010  0.86850  0.63860  1.0000
  C   C42       1.0  0.25550  0.84820  0.69260  1.0000
  O   O53       1.0  0.23420  0.76580  0.75000  1.0000
  H   H41       1.0  0.27190  0.91453  0.72213  1.0000
  H   H42       1.0  0.19179  0.82707  0.65792  1.0000
  O   O54       1.0  0.19550  0.61270  0.85280  1.0000
  O   O55       1.0  0.05540  0.61850  0.91180  1.0000
  C   C43       1.0  0.13150  0.64990  0.86140  1.0000
  C   C44       1.0  0.15180  0.74450  0.80740  1.0000
  H   H43       1.0  0.17293  0.80821  0.84208  1.0000
  H   H44       1.0  0.08547  0.72810  0.77787  1.0000
  O   O56       1.0  0.23420  0.46840  0.75000  1.0000
  O   O57       1.0  0.19550  0.58280  0.64720  1.0000
  O   O58       1.0  0.05540  0.43690  0.58820  1.0000
  C   C45       1.0  0.13150  0.48160  0.63860  1.0000
  C   C46       1.0  0.15180  0.40730  0.69260  1.0000
  H   H45       1.0  0.17293  0.36473  0.65792  1.0000
  H   H46       1.0  0.08547  0.35737  0.72213  1.0000
  O   O59       1.0  0.38730  0.58280  0.85280  1.0000
  O   O60       1.0  0.38150  0.43690  0.91180  1.0000
  C   C47       1.0  0.35010  0.48160  0.86140  1.0000
  C   C48       1.0  0.25550  0.40730  0.80740  1.0000
  H   H47       1.0  0.19179  0.36473  0.84208  1.0000
  H   H48       1.0  0.27190  0.35737  0.77787  1.0000
  Tm  Tm1       1.0  0.33333  0.66667  0.25000  1.0000
  Tm  Tm2       1.0  0.66667  0.33333  0.25000  1.0000
  Tm  Tm3       1.0  0.66667  0.33333  0.75000  1.0000
  Tm  Tm4       1.0  0.33333  0.66667  0.75000  1.0000
  Ni  Ni1       1.0  0.50000  0.50000  0.50000  1.0000
  Ni  Ni2       1.0  0.50000  0.00000  0.50000  1.0000
  Ni  Ni3       1.0  0.00000  0.50000  0.50000  1.0000
  Ni  Ni4       1.0  0.50000  0.50000  0.00000  1.0000
  Ni  Ni5       1.0  0.00000  0.50000  0.00000  1.0000
  Ni  Ni6       1.0  0.50000  0.00000  0.00000  1.0000
