data_image0
_chemical_formula_structural       CHO2COCO2CH2O5C3HCH2CH2CHO3COCOCH2O5C3HN3CH3NCN2CH3N2C2H3N2CN2H3NCN3CNCN3CH3N2CH3N2C2H3N2CN2CH3NCN3Zn8
_chemical_formula_sum              "C32 H36 O20 N32 Zn8"
_cell_length_a       9.3241
_cell_length_b       15.0826
_cell_length_c       10.2091
_cell_angle_alpha    90
_cell_angle_beta     95.057
_cell_angle_gamma    90

_space_group_name_H-M_alt    "P 1"
_space_group_IT_number       1

loop_
  _space_group_symop_operation_xyz
  'x, y, z'

loop_
  _atom_site_type_symbol
  _atom_site_label
  _atom_site_symmetry_multiplicity
  _atom_site_fract_x
  _atom_site_fract_y
  _atom_site_fract_z
  _atom_site_occupancy
  C   C1        1.0  0.60140  0.46820  0.00510  1.0000
  H   H1        1.0  0.59872  0.41451  0.06231  1.0000
  O   O1        1.0  0.50110  0.53280  0.04510  1.0000
  O   O2        1.0  0.55040  0.48920  0.64660  1.0000
  C   C2        1.0  0.75430  0.50690  0.01700  1.0000
  O   O3        1.0  0.57070  0.59680  0.79430  1.0000
  C   C3        1.0  0.55950  0.51660  0.76320  1.0000
  O   O4        1.0  0.85580  0.45090  0.00040  1.0000
  O   O5        1.0  0.77090  0.58650  0.03860  1.0000
  C   C4        1.0  0.55400  0.44300  0.86350  1.0000
  H   H2        1.0  0.45406  0.42048  0.85986  1.0000
  H   H3        1.0  0.61572  0.39376  0.83751  1.0000
  O   O6        1.0  0.54000  0.71500  0.17320  1.0000
  O   O7        1.0  0.89280  0.75260  0.49380  1.0000
  O   O8        1.0  0.45830  0.66410  0.49820  1.0000
  O   O9        1.0  0.53480  0.58810  0.28500  1.0000
  O   O10       1.0  0.76150  0.62950  0.49650  1.0000
  C   C5        1.0  0.77280  0.71070  0.48300  1.0000
  C   C6        1.0  0.52800  0.67170  0.27620  1.0000
  C   C7        1.0  0.50730  0.72500  0.40200  1.0000
  H   H4        1.0  0.43104  0.77073  0.38114  1.0000
  C   C8        1.0  0.64400  0.77110  0.45440  1.0000
  H   H5        1.0  0.62577  0.80254  0.53640  1.0000
  H   H6        1.0  0.66844  0.81631  0.38966  1.0000
  C   C9        1.0  0.44600  0.94300  0.13650  1.0000
  H   H7        1.0  0.54594  0.92048  0.14014  1.0000
  H   H8        1.0  0.38428  0.89376  0.16249  1.0000
  C   C10       1.0  0.39860  0.96820  0.99490  1.0000
  H   H9        1.0  0.40128  0.91451  0.93769  1.0000
  O   O11       1.0  0.14420  0.95090  0.99960  1.0000
  O   O12       1.0  0.49890  0.03280  0.95490  1.0000
  O   O13       1.0  0.44960  0.98920  0.35340  1.0000
  C   C11       1.0  0.24570  0.00690  0.98300  1.0000
  O   O14       1.0  0.42930  0.09680  0.20570  1.0000
  C   C12       1.0  0.44050  0.01660  0.23680  1.0000
  O   O15       1.0  0.22910  0.08650  0.96140  1.0000
  C   C13       1.0  0.35600  0.27110  0.54560  1.0000
  H   H10       1.0  0.37423  0.30255  0.46360  1.0000
  H   H11       1.0  0.33156  0.31631  0.61034  1.0000
  O   O16       1.0  0.10720  0.25260  0.50620  1.0000
  O   O17       1.0  0.23850  0.12950  0.50350  1.0000
  O   O18       1.0  0.46000  0.21500  0.82680  1.0000
  O   O19       1.0  0.54170  0.16410  0.50180  1.0000
  O   O20       1.0  0.46520  0.08810  0.71500  1.0000
  C   C14       1.0  0.22720  0.21070  0.51700  1.0000
  C   C15       1.0  0.47200  0.17170  0.72380  1.0000
  C   C16       1.0  0.49270  0.22500  0.59800  1.0000
  H   H12       1.0  0.56896  0.27073  0.61886  1.0000
  N   N1        1.0  0.10300  0.53510  0.83090  1.0000
  N   N2        1.0  0.11060  0.60730  0.64930  1.0000
  N   N3        1.0  0.18940  0.53170  0.64230  1.0000
  C   C17       1.0  0.96650  0.67860  0.81560  1.0000
  H   H13       1.0  0.94990  0.72476  0.74844  1.0000
  H   H14       1.0  0.87404  0.65307  0.83502  1.0000
  H   H15       1.0  0.01462  0.70448  0.89581  1.0000
  N   N4        1.0  0.18500  0.48920  0.75220  1.0000
  C   C18       1.0  0.05880  0.60790  0.76620  1.0000
  N   N5        1.0  0.11830  0.65240  0.33150  1.0000
  N   N6        1.0  0.10680  0.58120  0.14580  1.0000
  C   C19       1.0  0.98110  0.50950  0.32360  1.0000
  H   H16       1.0  0.96769  0.52337  0.41550  1.0000
  H   H17       1.0  0.88708  0.50616  0.27282  1.0000
  H   H18       1.0  0.03066  0.45241  0.31908  1.0000
  N   N7        1.0  0.18450  0.65590  0.13460  1.0000
  N   N8        1.0  0.19110  0.69970  0.24510  1.0000
  C   C20       1.0  0.06870  0.57980  0.26840  1.0000
  C   C21       1.0  0.14270  0.90690  0.37910  1.0000
  H   H19       1.0  0.17489  0.96596  0.35463  1.0000
  H   H20       1.0  0.16219  0.86425  0.31043  1.0000
  H   H21       1.0  0.03904  0.90826  0.38880  1.0000
  N   N9        1.0  0.35710  0.88170  0.68960  1.0000
  N   N10       1.0  0.31720  0.92920  0.57880  1.0000
  C   C22       1.0  0.22180  0.87960  0.50650  1.0000
  N   N11       1.0  0.28940  0.80600  0.68210  1.0000
  N   N12       1.0  0.20380  0.80340  0.56720  1.0000
  H   H22       1.0  0.07020  0.33316  0.83603  1.0000
  H   H23       1.0  0.21321  0.28282  0.80157  1.0000
  H   H24       1.0  0.09245  0.23066  0.87287  1.0000
  N   N13       1.0  0.17910  0.38600  0.06080  1.0000
  C   C23       1.0  0.21250  0.31300  0.99470  1.0000
  N   N14       1.0  0.34430  0.31340  0.17870  1.0000
  N   N15       1.0  0.31340  0.26870  0.06500  1.0000
  N   N16       1.0  0.26350  0.38320  0.17750  1.0000
  C   C24       1.0  0.14110  0.28780  0.86550  1.0000
  N   N17       1.0  0.81500  0.98920  0.24780  1.0000
  C   C25       1.0  0.94120  0.10790  0.23380  1.0000
  N   N18       1.0  0.89700  0.03510  0.16910  1.0000
  N   N19       1.0  0.88940  0.10730  0.35070  1.0000
  N   N20       1.0  0.81060  0.03170  0.35770  1.0000
  C   C26       1.0  0.03350  0.17860  0.18440  1.0000
  H   H25       1.0  0.05010  0.22476  0.25156  1.0000
  H   H26       1.0  0.12596  0.15307  0.16498  1.0000
  H   H27       1.0  0.98538  0.20448  0.10419  1.0000
  N   N21       1.0  0.88170  0.15240  0.66850  1.0000
  N   N22       1.0  0.89320  0.08120  0.85420  1.0000
  C   C27       1.0  0.01890  0.00950  0.67640  1.0000
  H   H28       1.0  0.03231  0.02337  0.58450  1.0000
  H   H29       1.0  0.11292  0.00616  0.72718  1.0000
  H   H30       1.0  0.96934  0.95241  0.68092  1.0000
  N   N23       1.0  0.81550  0.15590  0.86540  1.0000
  N   N24       1.0  0.80890  0.19970  0.75490  1.0000
  C   C28       1.0  0.93130  0.07980  0.73160  1.0000
  C   C29       1.0  0.85730  0.40690  0.62090  1.0000
  H   H31       1.0  0.82511  0.46596  0.64537  1.0000
  H   H32       1.0  0.83781  0.36425  0.68957  1.0000
  H   H33       1.0  0.96096  0.40826  0.61120  1.0000
  N   N25       1.0  0.64290  0.38170  0.31040  1.0000
  N   N26       1.0  0.68280  0.42920  0.42120  1.0000
  C   C30       1.0  0.77820  0.37960  0.49350  1.0000
  N   N27       1.0  0.71060  0.30600  0.31790  1.0000
  N   N28       1.0  0.79620  0.30340  0.43280  1.0000
  C   C31       1.0  0.85890  0.78780  0.13450  1.0000
  H   H34       1.0  0.92980  0.83316  0.16397  1.0000
  H   H35       1.0  0.78679  0.78282  0.19843  1.0000
  H   H36       1.0  0.90755  0.73066  0.12713  1.0000
  N   N29       1.0  0.82090  0.88600  0.93920  1.0000
  C   C32       1.0  0.78750  0.81300  0.00530  1.0000
  N   N30       1.0  0.65570  0.81340  0.82130  1.0000
  N   N31       1.0  0.68660  0.76870  0.93500  1.0000
  N   N32       1.0  0.73650  0.88320  0.82250  1.0000
  Zn  Zn1       1.0  0.56977  0.65898  0.98014  1.0000
  Zn  Zn2       1.0  0.08286  0.69871  0.50853  1.0000
  Zn  Zn3       1.0  0.56227  0.53740  0.46906  1.0000
  Zn  Zn4       1.0  0.05700  0.49028  0.00734  1.0000
  Zn  Zn5       1.0  0.43023  0.15898  0.01986  1.0000
  Zn  Zn6       1.0  0.91714  0.19871  0.49147  1.0000
  Zn  Zn7       1.0  0.43773  0.03740  0.53094  1.0000
  Zn  Zn8       1.0  0.94300  0.99028  0.99266  1.0000
