data_image0
_chemical_formula_structural       PO3CHOHCO2PO3CHOHCO2CHOHCO2PO3PO3CHOHCO4PO3CHOHCPO3CHOHCO2PO3CHOHCO3CHOHCO2PO2PO3CHOHCO2CO2PO3CHOHPO3CHOHCO2PO3CHOHCO2PO3CHOHCO2PO3CHOHCO4CHOHCO2POPO3CHOHCO2Gd12
_chemical_formula_sum              "P16 O96 C32 H32 Gd12"
_cell_length_a       13.0433
_cell_length_b       25.7014
_cell_length_c       11.0757
_cell_angle_alpha    90
_cell_angle_beta     90
_cell_angle_gamma    90

_space_group_name_H-M_alt    "P 1"
_space_group_IT_number       1

loop_
  _space_group_symop_operation_xyz
  'x, y, z'

loop_
  _atom_site_type_symbol
  _atom_site_label
  _atom_site_symmetry_multiplicity
  _atom_site_fract_x
  _atom_site_fract_y
  _atom_site_fract_z
  _atom_site_occupancy
  P   P1        1.0  0.18856  0.69604  0.84725  1.0000
  O   O1        1.0  0.29110  0.71915  0.87850  1.0000
  O   O2        1.0  0.17240  0.64054  0.90130  1.0000
  O   O3        1.0  0.16220  0.69278  0.71670  1.0000
  C   C1        1.0  0.09270  0.73830  0.91820  1.0000
  H   H1        1.0  0.10940  0.77540  0.89940  1.0000
  O   O4        1.0  0.99140  0.72726  0.87790  1.0000
  H   H2        1.0  0.99160  0.72510  0.80480  1.0000
  C   C2        1.0  0.09830  0.73011  0.05490  1.0000
  O   O5        1.0  0.18530  0.73552  0.10270  1.0000
  O   O6        1.0  0.01730  0.71891  0.11070  1.0000
  P   P2        1.0  0.29826  0.91835  0.68901  1.0000
  O   O7        1.0  0.38220  0.95379  0.64190  1.0000
  O   O8        1.0  0.22050  0.94952  0.76560  1.0000
  O   O9        1.0  0.24220  0.88759  0.59200  1.0000
  C   C3        1.0  0.36520  0.87055  0.78420  1.0000
  H   H3        1.0  0.42630  0.85850  0.73740  1.0000
  O   O10       1.0  0.30730  0.82488  0.81450  1.0000
  H   H4        1.0  0.31410  0.80770  0.75200  1.0000
  C   C4        1.0  0.40590  0.89520  0.90110  1.0000
  O   O11       1.0  0.44230  0.93961  0.89560  1.0000
  O   O12       1.0  0.39890  0.86844  0.99650  1.0000
  C   C5        1.0  0.40730  0.76170  0.41820  1.0000
  H   H5        1.0  0.39060  0.72460  0.39940  1.0000
  O   O13       1.0  0.50860  0.77274  0.37790  1.0000
  H   H6        1.0  0.50840  0.77490  0.30480  1.0000
  C   C6        1.0  0.40170  0.76989  0.55490  1.0000
  O   O14       1.0  0.31470  0.76448  0.60270  1.0000
  O   O15       1.0  0.48270  0.78109  0.61070  1.0000
  P   P3        1.0  0.31144  0.80396  0.34725  1.0000
  O   O16       1.0  0.20890  0.78085  0.37850  1.0000
  O   O17       1.0  0.32760  0.85946  0.40130  1.0000
  O   O18       1.0  0.33780  0.80722  0.21670  1.0000
  P   P4        1.0  0.20174  0.58165  0.18901  1.0000
  O   O19       1.0  0.11780  0.54621  0.14190  1.0000
  O   O20       1.0  0.27950  0.55048  0.26560  1.0000
  O   O21       1.0  0.25780  0.61241  0.09200  1.0000
  C   C7        1.0  0.13480  0.62945  0.28420  1.0000
  H   H7        1.0  0.07370  0.64150  0.23740  1.0000
  O   O22       1.0  0.19270  0.67512  0.31450  1.0000
  H   H8        1.0  0.18590  0.69230  0.25200  1.0000
  C   C8        1.0  0.09410  0.60480  0.40110  1.0000
  O   O23       1.0  0.05770  0.56039  0.39560  1.0000
  O   O24       1.0  0.10110  0.63156  0.49650  1.0000
  O   O25       1.0  0.18530  0.26448  0.39730  1.0000
  O   O26       1.0  0.01730  0.28109  0.38930  1.0000
  P   P5        1.0  0.18856  0.30396  0.65275  1.0000
  O   O27       1.0  0.29110  0.28085  0.62150  1.0000
  O   O28       1.0  0.17240  0.35946  0.59870  1.0000
  O   O29       1.0  0.16220  0.30722  0.78330  1.0000
  C   C9        1.0  0.09270  0.26170  0.58180  1.0000
  H   H9        1.0  0.10940  0.22460  0.60060  1.0000
  O   O30       1.0  0.99140  0.27274  0.62210  1.0000
  H   H10       1.0  0.99160  0.27490  0.69520  1.0000
  C   C10       1.0  0.09830  0.26989  0.44510  1.0000
  P   P6        1.0  0.29826  0.08165  0.81099  1.0000
  O   O31       1.0  0.38220  0.04621  0.85810  1.0000
  O   O32       1.0  0.22050  0.05048  0.73440  1.0000
  O   O33       1.0  0.24220  0.11241  0.90800  1.0000
  C   C11       1.0  0.36520  0.12945  0.71580  1.0000
  H   H11       1.0  0.42630  0.14150  0.76260  1.0000
  O   O34       1.0  0.30730  0.17512  0.68550  1.0000
  H   H12       1.0  0.31410  0.19230  0.74800  1.0000
  C   C12       1.0  0.40590  0.10480  0.59890  1.0000
  O   O35       1.0  0.44230  0.06039  0.60440  1.0000
  O   O36       1.0  0.39890  0.13156  0.50350  1.0000
  P   P7        1.0  0.31144  0.19604  0.15275  1.0000
  O   O37       1.0  0.20890  0.21915  0.12150  1.0000
  O   O38       1.0  0.32760  0.14054  0.09870  1.0000
  O   O39       1.0  0.33780  0.19278  0.28330  1.0000
  C   C13       1.0  0.40730  0.23830  0.08180  1.0000
  H   H13       1.0  0.39060  0.27540  0.10060  1.0000
  O   O40       1.0  0.50860  0.22726  0.12210  1.0000
  H   H14       1.0  0.50840  0.22510  0.19520  1.0000
  C   C14       1.0  0.40170  0.23011  0.94510  1.0000
  O   O41       1.0  0.31470  0.23552  0.89730  1.0000
  O   O42       1.0  0.48270  0.21891  0.88930  1.0000
  O   O43       1.0  0.25780  0.38759  0.40800  1.0000
  C   C15       1.0  0.13480  0.37055  0.21580  1.0000
  H   H15       1.0  0.07370  0.35850  0.26260  1.0000
  O   O44       1.0  0.19270  0.32488  0.18550  1.0000
  H   H16       1.0  0.18590  0.30770  0.24800  1.0000
  C   C16       1.0  0.09410  0.39520  0.09890  1.0000
  O   O45       1.0  0.05770  0.43961  0.10440  1.0000
  O   O46       1.0  0.10110  0.36844  0.00350  1.0000
  P   P8        1.0  0.20174  0.41835  0.31099  1.0000
  O   O47       1.0  0.11780  0.45379  0.35810  1.0000
  O   O48       1.0  0.27950  0.44952  0.23440  1.0000
  P   P9        1.0  0.81144  0.30396  0.15275  1.0000
  O   O49       1.0  0.70890  0.28085  0.12150  1.0000
  O   O50       1.0  0.82760  0.35946  0.09870  1.0000
  O   O51       1.0  0.83780  0.30722  0.28330  1.0000
  C   C17       1.0  0.90730  0.26170  0.08180  1.0000
  H   H17       1.0  0.89060  0.22460  0.10060  1.0000
  O   O52       1.0  0.00860  0.27274  0.12210  1.0000
  H   H18       1.0  0.00840  0.27490  0.19520  1.0000
  C   C18       1.0  0.90170  0.26989  0.94510  1.0000
  O   O53       1.0  0.81470  0.26448  0.89730  1.0000
  O   O54       1.0  0.98270  0.28109  0.88930  1.0000
  C   C19       1.0  0.59410  0.10480  0.09890  1.0000
  O   O55       1.0  0.55770  0.06039  0.10440  1.0000
  O   O56       1.0  0.60110  0.13156  0.00350  1.0000
  P   P10       1.0  0.70174  0.08165  0.31099  1.0000
  O   O57       1.0  0.61780  0.04621  0.35810  1.0000
  O   O58       1.0  0.77950  0.05048  0.23440  1.0000
  O   O59       1.0  0.75780  0.11241  0.40800  1.0000
  C   C20       1.0  0.63480  0.12945  0.21580  1.0000
  H   H19       1.0  0.57370  0.14150  0.26260  1.0000
  O   O60       1.0  0.69270  0.17512  0.18550  1.0000
  H   H20       1.0  0.68590  0.19230  0.24800  1.0000
  P   P11       1.0  0.68856  0.19604  0.65275  1.0000
  O   O61       1.0  0.79110  0.21915  0.62150  1.0000
  O   O62       1.0  0.67240  0.14054  0.59870  1.0000
  O   O63       1.0  0.66220  0.19278  0.78330  1.0000
  C   C21       1.0  0.59270  0.23830  0.58180  1.0000
  H   H21       1.0  0.60940  0.27540  0.60060  1.0000
  O   O64       1.0  0.49140  0.22726  0.62210  1.0000
  H   H22       1.0  0.49160  0.22510  0.69520  1.0000
  C   C22       1.0  0.59830  0.23011  0.44510  1.0000
  O   O65       1.0  0.68530  0.23552  0.39730  1.0000
  O   O66       1.0  0.51730  0.21891  0.38930  1.0000
  P   P12       1.0  0.79826  0.41835  0.81099  1.0000
  O   O67       1.0  0.88220  0.45379  0.85810  1.0000
  O   O68       1.0  0.72050  0.44952  0.73440  1.0000
  O   O69       1.0  0.74220  0.38759  0.90800  1.0000
  C   C23       1.0  0.86520  0.37055  0.71580  1.0000
  H   H23       1.0  0.92630  0.35850  0.76260  1.0000
  O   O70       1.0  0.80730  0.32488  0.68550  1.0000
  H   H24       1.0  0.81410  0.30770  0.74800  1.0000
  C   C24       1.0  0.90590  0.39520  0.59890  1.0000
  O   O71       1.0  0.94230  0.43961  0.60440  1.0000
  O   O72       1.0  0.89890  0.36844  0.50350  1.0000
  P   P13       1.0  0.81144  0.69604  0.34725  1.0000
  O   O73       1.0  0.70890  0.71915  0.37850  1.0000
  O   O74       1.0  0.82760  0.64054  0.40130  1.0000
  O   O75       1.0  0.83780  0.69278  0.21670  1.0000
  C   C25       1.0  0.90730  0.73830  0.41820  1.0000
  H   H25       1.0  0.89060  0.77540  0.39940  1.0000
  O   O76       1.0  0.00860  0.72726  0.37790  1.0000
  H   H26       1.0  0.00840  0.72510  0.30480  1.0000
  C   C26       1.0  0.90170  0.73011  0.55490  1.0000
  O   O77       1.0  0.81470  0.73552  0.60270  1.0000
  O   O78       1.0  0.98270  0.71891  0.61070  1.0000
  P   P14       1.0  0.70174  0.91835  0.18901  1.0000
  O   O79       1.0  0.61780  0.95379  0.14190  1.0000
  O   O80       1.0  0.77950  0.94952  0.26560  1.0000
  O   O81       1.0  0.75780  0.88759  0.09200  1.0000
  C   C27       1.0  0.63480  0.87055  0.28420  1.0000
  H   H27       1.0  0.57370  0.85850  0.23740  1.0000
  O   O82       1.0  0.69270  0.82488  0.31450  1.0000
  H   H28       1.0  0.68590  0.80770  0.25200  1.0000
  C   C28       1.0  0.59410  0.89520  0.40110  1.0000
  O   O83       1.0  0.55770  0.93961  0.39560  1.0000
  O   O84       1.0  0.60110  0.86844  0.49650  1.0000
  O   O85       1.0  0.67240  0.85946  0.90130  1.0000
  O   O86       1.0  0.66220  0.80722  0.71670  1.0000
  C   C29       1.0  0.59270  0.76170  0.91820  1.0000
  H   H29       1.0  0.60940  0.72460  0.89940  1.0000
  O   O87       1.0  0.49140  0.77274  0.87790  1.0000
  H   H30       1.0  0.49160  0.77490  0.80480  1.0000
  C   C30       1.0  0.59830  0.76989  0.05490  1.0000
  O   O88       1.0  0.68530  0.76448  0.10270  1.0000
  O   O89       1.0  0.51730  0.78109  0.11070  1.0000
  P   P15       1.0  0.68856  0.80396  0.84725  1.0000
  O   O90       1.0  0.79110  0.78085  0.87850  1.0000
  P   P16       1.0  0.79826  0.58165  0.68901  1.0000
  O   O91       1.0  0.88220  0.54621  0.64190  1.0000
  O   O92       1.0  0.72050  0.55048  0.76560  1.0000
  O   O93       1.0  0.74220  0.61241  0.59200  1.0000
  C   C31       1.0  0.86520  0.62945  0.78420  1.0000
  H   H31       1.0  0.92630  0.64150  0.73740  1.0000
  O   O94       1.0  0.80730  0.67512  0.81450  1.0000
  H   H32       1.0  0.81410  0.69230  0.75200  1.0000
  C   C32       1.0  0.90590  0.60480  0.90110  1.0000
  O   O95       1.0  0.94230  0.56039  0.89560  1.0000
  O   O96       1.0  0.89890  0.63156  0.99650  1.0000
  Gd  Gd1       1.0  0.34297  0.78122  0.02059  1.0000
  Gd  Gd2       1.0  0.65703  0.78122  0.52059  1.0000
  Gd  Gd3       1.0  0.84297  0.28122  0.47942  1.0000
  Gd  Gd4       1.0  0.15703  0.71878  0.52059  1.0000
  Gd  Gd5       1.0  0.65703  0.21878  0.97942  1.0000
  Gd  Gd6       1.0  0.15703  0.28122  0.97942  1.0000
  Gd  Gd7       1.0  0.34297  0.21878  0.47942  1.0000
  Gd  Gd8       1.0  0.50787  0.00000  0.75000  1.0000
  Gd  Gd9       1.0  0.99213  0.50000  0.25000  1.0000
  Gd  Gd10      1.0  0.49213  0.00000  0.25000  1.0000
  Gd  Gd11      1.0  0.00787  0.50000  0.75000  1.0000
  Gd  Gd12      1.0  0.84297  0.71878  0.02059  1.0000
