data_image0
_chemical_formula_structural       O2C5H4O2C5H4O2C5H4O2C5H4O2C5H4O2C5H4O2C5H4O2C5H4Zn4O2C5H4O2C5H4O2C5H4O2C5H4O2C5H4O2C5H4O2C5H4O2C5H4Zn4
_chemical_formula_sum              "O32 C80 H64 Zn8"
_cell_length_a       19.6593
_cell_length_b       9.7566
_cell_length_c       9.6388
_cell_angle_alpha    90
_cell_angle_beta     95.209
_cell_angle_gamma    90

_space_group_name_H-M_alt    "P 1"
_space_group_IT_number       1

loop_
  _space_group_symop_operation_xyz
  'x, y, z'

loop_
  _atom_site_type_symbol
  _atom_site_label
  _atom_site_symmetry_multiplicity
  _atom_site_fract_x
  _atom_site_fract_y
  _atom_site_fract_z
  _atom_site_occupancy
  O   O1        1.0  0.23904  0.13160  0.89890  1.0000
  O   O2        1.0  0.18026  0.14185  0.08210  1.0000
  C   C1        1.0  0.18563  0.16060  0.95450  1.0000
  C   C2        1.0  0.06045  0.23690  0.93680  1.0000
  C   C3        1.0  0.00590  0.15110  0.90100  1.0000
  C   C4        1.0  0.05429  0.33545  0.03640  1.0000
  C   C5        1.0  0.12571  0.22175  0.86630  1.0000
  H   H1        1.0  0.09300  0.39750  0.06600  1.0000
  H   H2        1.0  0.01000  0.08500  0.84400  1.0000
  H   H3        1.0  0.11700  0.16550  0.77900  1.0000
  H   H4        1.0  0.14110  0.30600  0.83300  1.0000
  O   O3        1.0  0.76096  0.36840  0.10110  1.0000
  O   O4        1.0  0.81974  0.35815  0.91790  1.0000
  C   C6        1.0  0.81437  0.33940  0.04550  1.0000
  C   C7        1.0  0.93955  0.26310  0.06320  1.0000
  C   C8        1.0  0.99410  0.34890  0.09900  1.0000
  C   C9        1.0  0.94571  0.16455  0.96360  1.0000
  C   C10       1.0  0.87429  0.27825  0.13370  1.0000
  H   H5        1.0  0.90700  0.10250  0.93400  1.0000
  H   H6        1.0  0.99000  0.41500  0.15600  1.0000
  H   H7        1.0  0.88300  0.33450  0.22100  1.0000
  H   H8        1.0  0.85890  0.19400  0.16700  1.0000
  O   O5        1.0  0.28367  0.34730  0.69710  1.0000
  O   O6        1.0  0.33960  0.03995  0.67240  1.0000
  C   C11       1.0  0.50909  0.39935  0.59960  1.0000
  C   C12       1.0  0.44418  0.42290  0.53720  1.0000
  C   C13       1.0  0.33269  0.41250  0.65440  1.0000
  C   C14       1.0  0.38413  0.33905  0.57500  1.0000
  C   C15       1.0  0.56430  0.47610  0.56360  1.0000
  H   H9        1.0  0.51660  0.33450  0.65900  1.0000
  H   H10       1.0  0.39980  0.27300  0.62000  1.0000
  H   H11       1.0  0.61160  0.45450  0.60300  1.0000
  H   H12       1.0  0.35680  0.30500  0.49500  1.0000
  O   O7        1.0  0.71633  0.15270  0.30290  1.0000
  O   O8        1.0  0.66040  0.46005  0.32760  1.0000
  C   C16       1.0  0.49091  0.10065  0.40040  1.0000
  C   C17       1.0  0.55582  0.07710  0.46280  1.0000
  C   C18       1.0  0.66731  0.08750  0.34560  1.0000
  C   C19       1.0  0.61587  0.16095  0.42500  1.0000
  C   C20       1.0  0.43570  0.02390  0.43640  1.0000
  H   H13       1.0  0.48340  0.16550  0.34100  1.0000
  H   H14       1.0  0.60020  0.22700  0.38000  1.0000
  H   H15       1.0  0.38840  0.04550  0.39700  1.0000
  H   H16       1.0  0.64320  0.19500  0.50500  1.0000
  O   O9        1.0  0.76096  0.38160  0.60110  1.0000
  O   O10       1.0  0.81974  0.39185  0.41790  1.0000
  C   C21       1.0  0.81437  0.41060  0.54550  1.0000
  C   C22       1.0  0.93955  0.48690  0.56320  1.0000
  C   C23       1.0  0.99410  0.40110  0.59900  1.0000
  C   C24       1.0  0.94571  0.08545  0.46360  1.0000
  C   C25       1.0  0.87429  0.47175  0.63370  1.0000
  H   H17       1.0  0.90700  0.14750  0.43400  1.0000
  H   H18       1.0  0.99000  0.33500  0.65600  1.0000
  H   H19       1.0  0.88300  0.41550  0.72100  1.0000
  H   H20       1.0  0.85890  0.05600  0.66700  1.0000
  O   O11       1.0  0.23904  0.11840  0.39890  1.0000
  O   O12       1.0  0.18026  0.10815  0.58210  1.0000
  C   C26       1.0  0.18563  0.08940  0.45450  1.0000
  C   C27       1.0  0.06045  0.01310  0.43680  1.0000
  C   C28       1.0  0.00590  0.09890  0.40100  1.0000
  C   C29       1.0  0.05429  0.41455  0.53640  1.0000
  C   C30       1.0  0.12571  0.02825  0.36630  1.0000
  H   H21       1.0  0.09300  0.35250  0.56600  1.0000
  H   H22       1.0  0.01000  0.16500  0.34400  1.0000
  H   H23       1.0  0.11700  0.08450  0.27900  1.0000
  H   H24       1.0  0.14110  0.44400  0.33300  1.0000
  O   O13       1.0  0.71633  0.09730  0.80290  1.0000
  O   O14       1.0  0.66040  0.28995  0.82760  1.0000
  C   C31       1.0  0.49091  0.14935  0.90040  1.0000
  C   C32       1.0  0.55582  0.17290  0.96280  1.0000
  C   C33       1.0  0.66731  0.16250  0.84560  1.0000
  C   C34       1.0  0.61587  0.08905  0.92500  1.0000
  C   C35       1.0  0.43570  0.22610  0.93640  1.0000
  H   H25       1.0  0.48340  0.08450  0.84100  1.0000
  H   H26       1.0  0.60020  0.02300  0.88000  1.0000
  H   H27       1.0  0.38840  0.20450  0.89700  1.0000
  H   H28       1.0  0.64320  0.05500  0.00500  1.0000
  O   O15       1.0  0.28367  0.40270  0.19710  1.0000
  O   O16       1.0  0.33960  0.21005  0.17240  1.0000
  C   C36       1.0  0.50909  0.35065  0.09960  1.0000
  C   C37       1.0  0.44418  0.32710  0.03720  1.0000
  C   C38       1.0  0.33269  0.33750  0.15440  1.0000
  C   C39       1.0  0.38413  0.41095  0.07500  1.0000
  C   C40       1.0  0.56430  0.27390  0.06360  1.0000
  H   H29       1.0  0.51660  0.41550  0.15900  1.0000
  H   H30       1.0  0.39980  0.47700  0.12000  1.0000
  H   H31       1.0  0.61160  0.29550  0.10300  1.0000
  H   H32       1.0  0.35680  0.44500  0.99500  1.0000
  Zn  Zn1       1.0  0.26128  0.15291  0.70548  1.0000
  Zn  Zn2       1.0  0.26128  0.09709  0.20548  1.0000
  Zn  Zn3       1.0  0.73872  0.34708  0.29452  1.0000
  Zn  Zn4       1.0  0.73872  0.40292  0.79452  1.0000
  O   O17       1.0  0.23904  0.63160  0.89890  1.0000
  O   O18       1.0  0.18026  0.64185  0.08210  1.0000
  C   C41       1.0  0.18563  0.66060  0.95450  1.0000
  C   C42       1.0  0.06045  0.73690  0.93680  1.0000
  C   C43       1.0  0.00590  0.65110  0.90100  1.0000
  C   C44       1.0  0.05429  0.83545  0.03640  1.0000
  C   C45       1.0  0.12571  0.72175  0.86630  1.0000
  H   H33       1.0  0.09300  0.89750  0.06600  1.0000
  H   H34       1.0  0.01000  0.58500  0.84400  1.0000
  H   H35       1.0  0.11700  0.66550  0.77900  1.0000
  H   H36       1.0  0.14110  0.80600  0.83300  1.0000
  O   O19       1.0  0.76096  0.86840  0.10110  1.0000
  O   O20       1.0  0.81974  0.85815  0.91790  1.0000
  C   C46       1.0  0.81437  0.83940  0.04550  1.0000
  C   C47       1.0  0.93955  0.76310  0.06320  1.0000
  C   C48       1.0  0.99410  0.84890  0.09900  1.0000
  C   C49       1.0  0.94571  0.66455  0.96360  1.0000
  C   C50       1.0  0.87429  0.77825  0.13370  1.0000
  H   H37       1.0  0.90700  0.60250  0.93400  1.0000
  H   H38       1.0  0.99000  0.91500  0.15600  1.0000
  H   H39       1.0  0.88300  0.83450  0.22100  1.0000
  H   H40       1.0  0.85890  0.69400  0.16700  1.0000
  O   O21       1.0  0.28367  0.84730  0.69710  1.0000
  O   O22       1.0  0.33960  0.53995  0.67240  1.0000
  C   C51       1.0  0.50909  0.89935  0.59960  1.0000
  C   C52       1.0  0.44418  0.92290  0.53720  1.0000
  C   C53       1.0  0.33269  0.91250  0.65440  1.0000
  C   C54       1.0  0.38413  0.83905  0.57500  1.0000
  C   C55       1.0  0.56430  0.97610  0.56360  1.0000
  H   H41       1.0  0.51660  0.83450  0.65900  1.0000
  H   H42       1.0  0.39980  0.77300  0.62000  1.0000
  H   H43       1.0  0.61160  0.95450  0.60300  1.0000
  H   H44       1.0  0.35680  0.80500  0.49500  1.0000
  O   O23       1.0  0.71633  0.65270  0.30290  1.0000
  O   O24       1.0  0.66040  0.96005  0.32760  1.0000
  C   C56       1.0  0.49091  0.60065  0.40040  1.0000
  C   C57       1.0  0.55582  0.57710  0.46280  1.0000
  C   C58       1.0  0.66731  0.58750  0.34560  1.0000
  C   C59       1.0  0.61587  0.66095  0.42500  1.0000
  C   C60       1.0  0.43570  0.52390  0.43640  1.0000
  H   H45       1.0  0.48340  0.66550  0.34100  1.0000
  H   H46       1.0  0.60020  0.72700  0.38000  1.0000
  H   H47       1.0  0.38840  0.54550  0.39700  1.0000
  H   H48       1.0  0.64320  0.69500  0.50500  1.0000
  O   O25       1.0  0.76096  0.88160  0.60110  1.0000
  O   O26       1.0  0.81974  0.89185  0.41790  1.0000
  C   C61       1.0  0.81437  0.91060  0.54550  1.0000
  C   C62       1.0  0.93955  0.98690  0.56320  1.0000
  C   C63       1.0  0.99410  0.90110  0.59900  1.0000
  C   C64       1.0  0.94571  0.58545  0.46360  1.0000
  C   C65       1.0  0.87429  0.97175  0.63370  1.0000
  H   H49       1.0  0.90700  0.64750  0.43400  1.0000
  H   H50       1.0  0.99000  0.83500  0.65600  1.0000
  H   H51       1.0  0.88300  0.91550  0.72100  1.0000
  H   H52       1.0  0.85890  0.55600  0.66700  1.0000
  O   O27       1.0  0.23904  0.61840  0.39890  1.0000
  O   O28       1.0  0.18026  0.60815  0.58210  1.0000
  C   C66       1.0  0.18563  0.58940  0.45450  1.0000
  C   C67       1.0  0.06045  0.51310  0.43680  1.0000
  C   C68       1.0  0.00590  0.59890  0.40100  1.0000
  C   C69       1.0  0.05429  0.91455  0.53640  1.0000
  C   C70       1.0  0.12571  0.52825  0.36630  1.0000
  H   H53       1.0  0.09300  0.85250  0.56600  1.0000
  H   H54       1.0  0.01000  0.66500  0.34400  1.0000
  H   H55       1.0  0.11700  0.58450  0.27900  1.0000
  H   H56       1.0  0.14110  0.94400  0.33300  1.0000
  O   O29       1.0  0.71633  0.59730  0.80290  1.0000
  O   O30       1.0  0.66040  0.78995  0.82760  1.0000
  C   C71       1.0  0.49091  0.64935  0.90040  1.0000
  C   C72       1.0  0.55582  0.67290  0.96280  1.0000
  C   C73       1.0  0.66731  0.66250  0.84560  1.0000
  C   C74       1.0  0.61587  0.58905  0.92500  1.0000
  C   C75       1.0  0.43570  0.72610  0.93640  1.0000
  H   H57       1.0  0.48340  0.58450  0.84100  1.0000
  H   H58       1.0  0.60020  0.52300  0.88000  1.0000
  H   H59       1.0  0.38840  0.70450  0.89700  1.0000
  H   H60       1.0  0.64320  0.55500  0.00500  1.0000
  O   O31       1.0  0.28367  0.90270  0.19710  1.0000
  O   O32       1.0  0.33960  0.71005  0.17240  1.0000
  C   C76       1.0  0.50909  0.85065  0.09960  1.0000
  C   C77       1.0  0.44418  0.82710  0.03720  1.0000
  C   C78       1.0  0.33269  0.83750  0.15440  1.0000
  C   C79       1.0  0.38413  0.91095  0.07500  1.0000
  C   C80       1.0  0.56430  0.77390  0.06360  1.0000
  H   H61       1.0  0.51660  0.91550  0.15900  1.0000
  H   H62       1.0  0.39980  0.97700  0.12000  1.0000
  H   H63       1.0  0.61160  0.79550  0.10300  1.0000
  H   H64       1.0  0.35680  0.94500  0.99500  1.0000
  Zn  Zn5       1.0  0.26128  0.65292  0.70548  1.0000
  Zn  Zn6       1.0  0.26128  0.59708  0.20548  1.0000
  Zn  Zn7       1.0  0.73872  0.84709  0.29452  1.0000
  Zn  Zn8       1.0  0.73872  0.90292  0.79452  1.0000
