data_image0
_chemical_formula_structural       O5C3HC3HC2HCHCHCHC2HCHO5C2HCHC2HC2HC3HCHCHC2HCHCHO5C3HC3HC2HCHCHCHCHC2HO5C2HCHC2HC2HC3HCHCMg4
_chemical_formula_sum              "O20 C56 H32 Mg4"
_cell_length_a       9.014
_cell_length_b       10.329
_cell_length_c       16.677
_cell_angle_alpha    90
_cell_angle_beta     94.25
_cell_angle_gamma    90

_space_group_name_H-M_alt    "P 1"
_space_group_IT_number       1

loop_
  _space_group_symop_operation_xyz
  'x, y, z'

loop_
  _atom_site_type_symbol
  _atom_site_label
  _atom_site_symmetry_multiplicity
  _atom_site_fract_x
  _atom_site_fract_y
  _atom_site_fract_z
  _atom_site_occupancy
  O   O1        1.0  0.64290  0.31020  0.88290  1.0000
  O   O2        1.0  0.45590  0.56080  0.17686  1.0000
  O   O3        1.0  0.75260  0.49680  0.85520  1.0000
  O   O4        1.0  0.64000  0.41870  0.20000  1.0000
  O   O5        1.0  0.34390  0.39790  0.53300  1.0000
  C   C1        1.0  0.48280  0.45780  0.30430  1.0000
  C   C2        1.0  0.52800  0.47800  0.22090  1.0000
  C   C3        1.0  0.64450  0.46680  0.68970  1.0000
  H   H1        1.0  0.73510  0.51370  0.69780  1.0000
  C   C4        1.0  0.40290  0.42070  0.45890  1.0000
  C   C5        1.0  0.66770  0.40430  0.83550  1.0000
  C   C6        1.0  0.49760  0.33180  0.42720  1.0000
  H   H2        1.0  0.53390  0.25960  0.45810  1.0000
  C   C7        1.0  0.58790  0.40160  0.75390  1.0000
  C   C8        1.0  0.45400  0.33540  0.74070  1.0000
  H   H3        1.0  0.41530  0.29010  0.78410  1.0000
  C   C9        1.0  0.53830  0.35020  0.35000  1.0000
  H   H4        1.0  0.60360  0.29060  0.32730  1.0000
  C   C10       1.0  0.37600  0.33370  0.66670  1.0000
  H   H5        1.0  0.28370  0.28940  0.65930  1.0000
  C   C11       1.0  0.38860  0.54380  0.33860  1.0000
  H   H6        1.0  0.35030  0.61570  0.30820  1.0000
  C   C12       1.0  0.43420  0.39790  0.60280  1.0000
  C   C13       1.0  0.56960  0.46380  0.61430  1.0000
  H   H7        1.0  0.61010  0.50640  0.57040  1.0000
  C   C14       1.0  0.34920  0.52660  0.41690  1.0000
  H   H8        1.0  0.28640  0.58710  0.44080  1.0000
  O   O6        1.0  0.13610  0.66480  0.20407  1.0000
  O   O7        1.0  0.84000  0.66230  0.53750  1.0000
  O   O8        1.0  0.94440  0.53040  0.17724  1.0000
  O   O9        1.0  0.13540  0.77460  0.88601  1.0000
  O   O10       1.0  0.22890  0.58000  0.86430  1.0000
  C   C15       1.0  0.93190  0.67150  0.60740  1.0000
  C   C16       1.0  0.84010  0.54480  0.41610  1.0000
  H   H9        1.0  0.77260  0.48510  0.43690  1.0000
  C   C17       1.0  0.87950  0.53260  0.33900  1.0000
  H   H10       1.0  0.83790  0.46510  0.30580  1.0000
  C   C18       1.0  0.02270  0.60250  0.22430  1.0000
  C   C19       1.0  0.87630  0.74650  0.66680  1.0000
  H   H11       1.0  0.78750  0.79500  0.65600  1.0000
  C   C20       1.0  0.08060  0.67880  0.75790  1.0000
  C   C21       1.0  0.06260  0.60190  0.62090  1.0000
  H   H12       1.0  0.10160  0.55330  0.57890  1.0000
  C   C22       1.0  0.15400  0.67710  0.84130  1.0000
  C   C23       1.0  0.89950  0.64540  0.46420  1.0000
  C   C24       1.0  0.95090  0.75030  0.74160  1.0000
  H   H13       1.0  0.91360  0.80210  0.78270  1.0000
  C   C25       1.0  0.04170  0.71630  0.35750  1.0000
  H   H14       1.0  0.11200  0.77400  0.33730  1.0000
  C   C26       1.0  0.00090  0.73020  0.43560  1.0000
  H   H15       1.0  0.04240  0.79750  0.46900  1.0000
  C   C27       1.0  0.97990  0.61830  0.30870  1.0000
  C   C28       1.0  0.13530  0.60470  0.69710  1.0000
  H   H16       1.0  0.22350  0.55550  0.70790  1.0000
  C   C29       1.0  0.43040  0.96380  0.38570  1.0000
  H   H17       1.0  0.38990  0.00640  0.42960  1.0000
  C   C30       1.0  0.65080  0.02660  0.58310  1.0000
  H   H18       1.0  0.71360  0.08710  0.55920  1.0000
  O   O11       1.0  0.35710  0.81020  0.11710  1.0000
  O   O12       1.0  0.54410  0.06080  0.82314  1.0000
  O   O13       1.0  0.24740  0.99680  0.14480  1.0000
  O   O14       1.0  0.36000  0.91870  0.80000  1.0000
  O   O15       1.0  0.65610  0.89790  0.46700  1.0000
  C   C31       1.0  0.51720  0.95780  0.69570  1.0000
  C   C32       1.0  0.47200  0.97800  0.77910  1.0000
  C   C33       1.0  0.35550  0.96680  0.31030  1.0000
  H   H19       1.0  0.26490  0.01370  0.30220  1.0000
  C   C34       1.0  0.59710  0.92070  0.54110  1.0000
  C   C35       1.0  0.33230  0.90430  0.16450  1.0000
  C   C36       1.0  0.50240  0.83180  0.57280  1.0000
  H   H20       1.0  0.46610  0.75960  0.54190  1.0000
  C   C37       1.0  0.41210  0.90160  0.24610  1.0000
  C   C38       1.0  0.54600  0.83540  0.25930  1.0000
  H   H21       1.0  0.58470  0.79010  0.21590  1.0000
  C   C39       1.0  0.46170  0.85020  0.65000  1.0000
  H   H22       1.0  0.39640  0.79060  0.67270  1.0000
  C   C40       1.0  0.62400  0.83370  0.33330  1.0000
  H   H23       1.0  0.71630  0.78940  0.34070  1.0000
  C   C41       1.0  0.61140  0.04380  0.66140  1.0000
  H   H24       1.0  0.64970  0.11570  0.69180  1.0000
  C   C42       1.0  0.56580  0.89790  0.39720  1.0000
  H   H25       1.0  0.95760  0.29750  0.53100  1.0000
  C   C43       1.0  0.02010  0.11830  0.69130  1.0000
  C   C44       1.0  0.86470  0.10470  0.30290  1.0000
  H   H26       1.0  0.77650  0.05550  0.29210  1.0000
  O   O16       1.0  0.86390  0.16480  0.79593  1.0000
  O   O17       1.0  0.16000  0.16230  0.46250  1.0000
  O   O18       1.0  0.05560  0.03040  0.82276  1.0000
  O   O19       1.0  0.86460  0.27460  0.11399  1.0000
  O   O20       1.0  0.77110  0.08000  0.13570  1.0000
  C   C45       1.0  0.06810  0.17150  0.39260  1.0000
  C   C46       1.0  0.15990  0.04480  0.58390  1.0000
  H   H27       1.0  0.22740  0.98510  0.56310  1.0000
  C   C47       1.0  0.12050  0.03260  0.66100  1.0000
  H   H28       1.0  0.16210  0.96510  0.69420  1.0000
  C   C48       1.0  0.97730  0.10250  0.77570  1.0000
  C   C49       1.0  0.12370  0.24650  0.33320  1.0000
  H   H29       1.0  0.21250  0.29500  0.34400  1.0000
  C   C50       1.0  0.91940  0.17880  0.24210  1.0000
  C   C51       1.0  0.93740  0.10190  0.37910  1.0000
  H   H30       1.0  0.89840  0.05330  0.42110  1.0000
  C   C52       1.0  0.84600  0.17710  0.15870  1.0000
  C   C53       1.0  0.10050  0.14540  0.53580  1.0000
  C   C54       1.0  0.04910  0.25030  0.25840  1.0000
  H   H31       1.0  0.08640  0.30210  0.21730  1.0000
  C   C55       1.0  0.95830  0.21630  0.64250  1.0000
  H   H32       1.0  0.88800  0.27400  0.66270  1.0000
  C   C56       1.0  0.99910  0.23020  0.56440  1.0000
  Mg  Mg1       1.0  0.26810  0.62580  0.11196  1.0000
  Mg  Mg2       1.0  0.77070  0.45520  0.10799  1.0000
  Mg  Mg3       1.0  0.73190  0.12580  0.88804  1.0000
  Mg  Mg4       1.0  0.22930  0.95520  0.89201  1.0000
