data_image0
_chemical_formula_structural       N2O3SC2H2C4HCHCHC2HCHCHCHCN2O3SC2H2C4HCHCHC2HCHCHCHCN2O3SC2H2C4HCHCHC2HCHCHCHCN2O3SC2H2C4HCHCHC2HCHCHCHCO3SC2H2C4HCHCHC2HCHCHCHCN4O3SC2H2C4HCHCHC2HCHCHCHCN2O3SC2H2C4HCHCHC2HCHCHCHCN2O3SC2H2C4HCHCHC2HCHCHCHCCu16
_chemical_formula_sum              "N16 O24 S8 C112 H72 Cu16"
_cell_length_a       13.8459
_cell_length_b       13.8459
_cell_length_c       21.2017
_cell_angle_alpha    90
_cell_angle_beta     90
_cell_angle_gamma    90

_space_group_name_H-M_alt    "P 1"
_space_group_IT_number       1

loop_
  _space_group_symop_operation_xyz
  'x, y, z'

loop_
  _atom_site_type_symbol
  _atom_site_label
  _atom_site_symmetry_multiplicity
  _atom_site_fract_x
  _atom_site_fract_y
  _atom_site_fract_z
  _atom_site_occupancy
  N   N1        1.0  0.26134  0.45128  0.64728  1.0000
  N   N2        1.0  0.38584  0.55567  0.61219  1.0000
  O   O1        1.0  0.07431  0.28704  0.69156  1.0000
  O   O2        1.0  0.14277  0.40981  0.73994  1.0000
  O   O3        1.0  0.33096  0.60765  0.71068  1.0000
  S   S1        1.0  0.35813  0.39345  0.54571  1.0000
  C   C1        1.0  0.13450  0.35260  0.69399  1.0000
  C   C2        1.0  0.20220  0.36520  0.63820  1.0000
  H   H1        1.0  0.24340  0.30890  0.63430  1.0000
  H   H2        1.0  0.16490  0.37140  0.59970  1.0000
  C   C3        1.0  0.32950  0.47230  0.60801  1.0000
  C   C4        1.0  0.38210  0.61380  0.66124  1.0000
  C   C5        1.0  0.44820  0.69890  0.65845  1.0000
  C   C6        1.0  0.43610  0.76800  0.61340  1.0000
  H   H3        1.0  0.38740  0.76210  0.58350  1.0000
  C   C7        1.0  0.49960  0.85030  0.61270  1.0000
  H   H4        1.0  0.49190  0.89800  0.58230  1.0000
  C   C8        1.0  0.56910  0.85810  0.65540  1.0000
  H   H5        1.0  0.60870  0.91230  0.65460  1.0000
  C   C9        1.0  0.58540  0.78800  0.70160  1.0000
  C   C10       1.0  0.66080  0.79360  0.74630  1.0000
  H   H6        1.0  0.70210  0.84660  0.74520  1.0000
  C   C11       1.0  0.67530  0.72610  0.79020  1.0000
  H   H7        1.0  0.72650  0.73170  0.81830  1.0000
  C   C12       1.0  0.61300  0.64680  0.79360  1.0000
  H   H8        1.0  0.62210  0.60020  0.82460  1.0000
  C   C13       1.0  0.53920  0.63740  0.75170  1.0000
  H   H9        1.0  0.49880  0.58390  0.75420  1.0000
  C   C14       1.0  0.52300  0.70710  0.70484  1.0000
  N   N3        1.0  0.76134  0.95128  0.14728  1.0000
  N   N4        1.0  0.88584  0.05567  0.11219  1.0000
  O   O4        1.0  0.57431  0.78704  0.19156  1.0000
  O   O5        1.0  0.64277  0.90981  0.23994  1.0000
  O   O6        1.0  0.83096  0.10765  0.21068  1.0000
  S   S2        1.0  0.85813  0.89345  0.04571  1.0000
  C   C15       1.0  0.63450  0.85260  0.19399  1.0000
  C   C16       1.0  0.70220  0.86520  0.13820  1.0000
  H   H10       1.0  0.74340  0.80890  0.13430  1.0000
  H   H11       1.0  0.66490  0.87140  0.09970  1.0000
  C   C17       1.0  0.82950  0.97230  0.10801  1.0000
  C   C18       1.0  0.88210  0.11380  0.16124  1.0000
  C   C19       1.0  0.94820  0.19890  0.15845  1.0000
  C   C20       1.0  0.93610  0.26800  0.11340  1.0000
  H   H12       1.0  0.88740  0.26210  0.08350  1.0000
  C   C21       1.0  0.99960  0.35030  0.11270  1.0000
  H   H13       1.0  0.99190  0.39800  0.08230  1.0000
  C   C22       1.0  0.06910  0.35810  0.15540  1.0000
  H   H14       1.0  0.10870  0.41230  0.15460  1.0000
  C   C23       1.0  0.08540  0.28800  0.20160  1.0000
  C   C24       1.0  0.16080  0.29360  0.24630  1.0000
  H   H15       1.0  0.20210  0.34660  0.24520  1.0000
  C   C25       1.0  0.17530  0.22610  0.29020  1.0000
  H   H16       1.0  0.22650  0.23170  0.31830  1.0000
  C   C26       1.0  0.11300  0.14680  0.29360  1.0000
  H   H17       1.0  0.12210  0.10020  0.32460  1.0000
  C   C27       1.0  0.03920  0.13740  0.25170  1.0000
  H   H18       1.0  0.99880  0.08390  0.25420  1.0000
  C   C28       1.0  0.02300  0.20710  0.20484  1.0000
  N   N5        1.0  0.73866  0.54872  0.64728  1.0000
  N   N6        1.0  0.61416  0.44433  0.61219  1.0000
  O   O7        1.0  0.92569  0.71296  0.69156  1.0000
  O   O8        1.0  0.85723  0.59019  0.73994  1.0000
  O   O9        1.0  0.66904  0.39235  0.71068  1.0000
  S   S3        1.0  0.64187  0.60655  0.54571  1.0000
  C   C29       1.0  0.86550  0.64740  0.69399  1.0000
  C   C30       1.0  0.79780  0.63480  0.63820  1.0000
  H   H19       1.0  0.75660  0.69110  0.63430  1.0000
  H   H20       1.0  0.83510  0.62860  0.59970  1.0000
  C   C31       1.0  0.67050  0.52770  0.60801  1.0000
  C   C32       1.0  0.61790  0.38620  0.66124  1.0000
  C   C33       1.0  0.55180  0.30110  0.65845  1.0000
  C   C34       1.0  0.56390  0.23200  0.61340  1.0000
  H   H21       1.0  0.61260  0.23790  0.58350  1.0000
  C   C35       1.0  0.50040  0.14970  0.61270  1.0000
  H   H22       1.0  0.50810  0.10200  0.58230  1.0000
  C   C36       1.0  0.43090  0.14190  0.65540  1.0000
  H   H23       1.0  0.39130  0.08770  0.65460  1.0000
  C   C37       1.0  0.41460  0.21200  0.70160  1.0000
  C   C38       1.0  0.33920  0.20640  0.74630  1.0000
  H   H24       1.0  0.29790  0.15340  0.74520  1.0000
  C   C39       1.0  0.32470  0.27390  0.79020  1.0000
  H   H25       1.0  0.27350  0.26830  0.81830  1.0000
  C   C40       1.0  0.38700  0.35320  0.79360  1.0000
  H   H26       1.0  0.37790  0.39980  0.82460  1.0000
  C   C41       1.0  0.46080  0.36260  0.75170  1.0000
  H   H27       1.0  0.50120  0.41610  0.75420  1.0000
  C   C42       1.0  0.47700  0.29290  0.70484  1.0000
  N   N7        1.0  0.23866  0.04872  0.14728  1.0000
  N   N8        1.0  0.11416  0.94433  0.11219  1.0000
  O   O10       1.0  0.42569  0.21296  0.19156  1.0000
  O   O11       1.0  0.35723  0.09019  0.23994  1.0000
  O   O12       1.0  0.16904  0.89235  0.21068  1.0000
  S   S4        1.0  0.14187  0.10655  0.04571  1.0000
  C   C43       1.0  0.36550  0.14740  0.19399  1.0000
  C   C44       1.0  0.29780  0.13480  0.13820  1.0000
  H   H28       1.0  0.25660  0.19110  0.13430  1.0000
  H   H29       1.0  0.33510  0.12860  0.09970  1.0000
  C   C45       1.0  0.17050  0.02770  0.10801  1.0000
  C   C46       1.0  0.11790  0.88620  0.16124  1.0000
  C   C47       1.0  0.05180  0.80110  0.15845  1.0000
  C   C48       1.0  0.06390  0.73200  0.11340  1.0000
  H   H30       1.0  0.11260  0.73790  0.08350  1.0000
  C   C49       1.0  0.00040  0.64970  0.11270  1.0000
  H   H31       1.0  0.00810  0.60200  0.08230  1.0000
  C   C50       1.0  0.93090  0.64190  0.15540  1.0000
  H   H32       1.0  0.89130  0.58770  0.15460  1.0000
  C   C51       1.0  0.91460  0.71200  0.20160  1.0000
  C   C52       1.0  0.83920  0.70640  0.24630  1.0000
  H   H33       1.0  0.79790  0.65340  0.24520  1.0000
  C   C53       1.0  0.82470  0.77390  0.29020  1.0000
  H   H34       1.0  0.77350  0.76830  0.31830  1.0000
  C   C54       1.0  0.88700  0.85320  0.29360  1.0000
  H   H35       1.0  0.87790  0.89980  0.32460  1.0000
  C   C55       1.0  0.96080  0.86260  0.25170  1.0000
  H   H36       1.0  0.00120  0.91610  0.25420  1.0000
  C   C56       1.0  0.97700  0.79290  0.20484  1.0000
  O   O13       1.0  0.28704  0.92569  0.30844  1.0000
  O   O14       1.0  0.40981  0.85723  0.26006  1.0000
  O   O15       1.0  0.60765  0.66904  0.28932  1.0000
  S   S5        1.0  0.39345  0.64187  0.45429  1.0000
  C   C57       1.0  0.35260  0.86550  0.30601  1.0000
  C   C58       1.0  0.36520  0.79780  0.36180  1.0000
  H   H37       1.0  0.30890  0.75660  0.36570  1.0000
  H   H38       1.0  0.37140  0.83510  0.40030  1.0000
  C   C59       1.0  0.47230  0.67050  0.39199  1.0000
  C   C60       1.0  0.61380  0.61790  0.33876  1.0000
  C   C61       1.0  0.69890  0.55180  0.34155  1.0000
  C   C62       1.0  0.76800  0.56390  0.38660  1.0000
  H   H39       1.0  0.76210  0.61260  0.41650  1.0000
  C   C63       1.0  0.85030  0.50040  0.38730  1.0000
  H   H40       1.0  0.89800  0.50810  0.41770  1.0000
  C   C64       1.0  0.85810  0.43090  0.34460  1.0000
  H   H41       1.0  0.91230  0.39130  0.34540  1.0000
  C   C65       1.0  0.78800  0.41460  0.29840  1.0000
  C   C66       1.0  0.79360  0.33920  0.25370  1.0000
  H   H42       1.0  0.84660  0.29790  0.25480  1.0000
  C   C67       1.0  0.72610  0.32470  0.20980  1.0000
  H   H43       1.0  0.73170  0.27350  0.18170  1.0000
  C   C68       1.0  0.64680  0.38700  0.20640  1.0000
  H   H44       1.0  0.60020  0.37790  0.17540  1.0000
  C   C69       1.0  0.63740  0.46080  0.24830  1.0000
  H   H45       1.0  0.58390  0.50120  0.24580  1.0000
  C   C70       1.0  0.70710  0.47700  0.29516  1.0000
  N   N9        1.0  0.45128  0.73866  0.35272  1.0000
  N   N10       1.0  0.55567  0.61416  0.38781  1.0000
  N   N11       1.0  0.95128  0.23866  0.85272  1.0000
  N   N12       1.0  0.05567  0.11416  0.88781  1.0000
  O   O16       1.0  0.78704  0.42569  0.80844  1.0000
  O   O17       1.0  0.90981  0.35723  0.76006  1.0000
  O   O18       1.0  0.10765  0.16904  0.78932  1.0000
  S   S6        1.0  0.89345  0.14187  0.95429  1.0000
  C   C71       1.0  0.85260  0.36550  0.80601  1.0000
  C   C72       1.0  0.86520  0.29780  0.86180  1.0000
  H   H46       1.0  0.80890  0.25660  0.86570  1.0000
  H   H47       1.0  0.87140  0.33510  0.90030  1.0000
  C   C73       1.0  0.97230  0.17050  0.89199  1.0000
  C   C74       1.0  0.11380  0.11790  0.83876  1.0000
  C   C75       1.0  0.19890  0.05180  0.84155  1.0000
  C   C76       1.0  0.26800  0.06390  0.88660  1.0000
  H   H48       1.0  0.26210  0.11260  0.91650  1.0000
  C   C77       1.0  0.35030  0.00040  0.88730  1.0000
  H   H49       1.0  0.39800  0.00810  0.91770  1.0000
  C   C78       1.0  0.35810  0.93090  0.84460  1.0000
  H   H50       1.0  0.41230  0.89130  0.84540  1.0000
  C   C79       1.0  0.28800  0.91460  0.79840  1.0000
  C   C80       1.0  0.29360  0.83920  0.75370  1.0000
  H   H51       1.0  0.34660  0.79790  0.75480  1.0000
  C   C81       1.0  0.22610  0.82470  0.70980  1.0000
  H   H52       1.0  0.23170  0.77350  0.68170  1.0000
  C   C82       1.0  0.14680  0.88700  0.70640  1.0000
  H   H53       1.0  0.10020  0.87790  0.67540  1.0000
  C   C83       1.0  0.13740  0.96080  0.74830  1.0000
  H   H54       1.0  0.08390  0.00120  0.74580  1.0000
  C   C84       1.0  0.20710  0.97700  0.79516  1.0000
  N   N13       1.0  0.54872  0.26134  0.35272  1.0000
  N   N14       1.0  0.44433  0.38584  0.38781  1.0000
  O   O19       1.0  0.71296  0.07431  0.30844  1.0000
  O   O20       1.0  0.59019  0.14277  0.26006  1.0000
  O   O21       1.0  0.39235  0.33096  0.28932  1.0000
  S   S7        1.0  0.60655  0.35813  0.45429  1.0000
  C   C85       1.0  0.64740  0.13450  0.30601  1.0000
  C   C86       1.0  0.63480  0.20220  0.36180  1.0000
  H   H55       1.0  0.69110  0.24340  0.36570  1.0000
  H   H56       1.0  0.62860  0.16490  0.40030  1.0000
  C   C87       1.0  0.52770  0.32950  0.39199  1.0000
  C   C88       1.0  0.38620  0.38210  0.33876  1.0000
  C   C89       1.0  0.30110  0.44820  0.34155  1.0000
  C   C90       1.0  0.23200  0.43610  0.38660  1.0000
  H   H57       1.0  0.23790  0.38740  0.41650  1.0000
  C   C91       1.0  0.14970  0.49960  0.38730  1.0000
  H   H58       1.0  0.10200  0.49190  0.41770  1.0000
  C   C92       1.0  0.14190  0.56910  0.34460  1.0000
  H   H59       1.0  0.08770  0.60870  0.34540  1.0000
  C   C93       1.0  0.21200  0.58540  0.29840  1.0000
  C   C94       1.0  0.20640  0.66080  0.25370  1.0000
  H   H60       1.0  0.15340  0.70210  0.25480  1.0000
  C   C95       1.0  0.27390  0.67530  0.20980  1.0000
  H   H61       1.0  0.26830  0.72650  0.18170  1.0000
  C   C96       1.0  0.35320  0.61300  0.20640  1.0000
  H   H62       1.0  0.39980  0.62210  0.17540  1.0000
  C   C97       1.0  0.36260  0.53920  0.24830  1.0000
  H   H63       1.0  0.41610  0.49880  0.24580  1.0000
  C   C98       1.0  0.29290  0.52300  0.29516  1.0000
  N   N15       1.0  0.04872  0.76134  0.85272  1.0000
  N   N16       1.0  0.94433  0.88584  0.88781  1.0000
  O   O22       1.0  0.21296  0.57431  0.80844  1.0000
  O   O23       1.0  0.09019  0.64277  0.76006  1.0000
  O   O24       1.0  0.89235  0.83096  0.78932  1.0000
  S   S8        1.0  0.10655  0.85813  0.95429  1.0000
  C   C99       1.0  0.14740  0.63450  0.80601  1.0000
  C   C100      1.0  0.13480  0.70220  0.86180  1.0000
  H   H64       1.0  0.19110  0.74340  0.86570  1.0000
  H   H65       1.0  0.12860  0.66490  0.90030  1.0000
  C   C101      1.0  0.02770  0.82950  0.89199  1.0000
  C   C102      1.0  0.88620  0.88210  0.83876  1.0000
  C   C103      1.0  0.80110  0.94820  0.84155  1.0000
  C   C104      1.0  0.73200  0.93610  0.88660  1.0000
  H   H66       1.0  0.73790  0.88740  0.91650  1.0000
  C   C105      1.0  0.64970  0.99960  0.88730  1.0000
  H   H67       1.0  0.60200  0.99190  0.91770  1.0000
  C   C106      1.0  0.64190  0.06910  0.84460  1.0000
  H   H68       1.0  0.58770  0.10870  0.84540  1.0000
  C   C107      1.0  0.71200  0.08540  0.79840  1.0000
  C   C108      1.0  0.70640  0.16080  0.75370  1.0000
  H   H69       1.0  0.65340  0.20210  0.75480  1.0000
  C   C109      1.0  0.77390  0.17530  0.70980  1.0000
  H   H70       1.0  0.76830  0.22650  0.68170  1.0000
  C   C110      1.0  0.85320  0.11300  0.70640  1.0000
  H   H71       1.0  0.89980  0.12210  0.67540  1.0000
  C   C111      1.0  0.86260  0.03920  0.74830  1.0000
  H   H72       1.0  0.91610  0.99880  0.74580  1.0000
  C   C112      1.0  0.79290  0.02300  0.79516  1.0000
  Cu  Cu1       1.0  0.01250  0.26451  0.77328  1.0000
  Cu  Cu2       1.0  0.52191  0.40378  0.54233  1.0000
  Cu  Cu3       1.0  0.23549  0.51250  0.72672  1.0000
  Cu  Cu4       1.0  0.09622  0.02191  0.95767  1.0000
  Cu  Cu5       1.0  0.76451  0.48750  0.72672  1.0000
  Cu  Cu6       1.0  0.90378  0.97809  0.95767  1.0000
  Cu  Cu7       1.0  0.48750  0.23549  0.27328  1.0000
  Cu  Cu8       1.0  0.97809  0.09622  0.04233  1.0000
  Cu  Cu9       1.0  0.51250  0.76451  0.27328  1.0000
  Cu  Cu10      1.0  0.02191  0.90378  0.04233  1.0000
  Cu  Cu11      1.0  0.73549  0.01250  0.22672  1.0000
  Cu  Cu12      1.0  0.59622  0.52191  0.45767  1.0000
  Cu  Cu13      1.0  0.26451  0.98750  0.22672  1.0000
  Cu  Cu14      1.0  0.40378  0.47809  0.45767  1.0000
  Cu  Cu15      1.0  0.98750  0.73549  0.77328  1.0000
  Cu  Cu16      1.0  0.47809  0.59622  0.54233  1.0000
