data_image0
_chemical_formula_structural       N3ON2CHC2HCHCHCHOC3HCHC3HCHOCHCHCHC4HC2HCHNH4OCHCHCHC4HC2HCHNH3N3ON2CHC2HCHCHCHOC3HCHC3HCSO6C2HCHC4HCO2SO6C2HCHC4HCNi3
_chemical_formula_sum              "N12 O20 C64 H42 S2 Ni3"
_cell_length_a       11.273
_cell_length_b       16.66
_cell_length_c       16.747
_cell_angle_alpha    104.388
_cell_angle_beta     96.648
_cell_angle_gamma    106.752

_space_group_name_H-M_alt    "P 1"
_space_group_IT_number       1

loop_
  _space_group_symop_operation_xyz
  'x, y, z'

loop_
  _atom_site_type_symbol
  _atom_site_label
  _atom_site_symmetry_multiplicity
  _atom_site_fract_x
  _atom_site_fract_y
  _atom_site_fract_z
  _atom_site_occupancy
  N   N1        1.0  0.88010  0.00106  0.39530  1.0000
  N   N2        1.0  0.55970  0.60549  0.42593  1.0000
  N   N3        1.0  0.43570  0.19010  0.86087  1.0000
  O   O1        1.0  0.58030  0.12060  0.86152  1.0000
  N   N4        1.0  0.67520  0.08450  0.22660  1.0000
  N   N5        1.0  0.54370  0.36820  0.25930  1.0000
  C   C1        1.0  0.76150  0.00100  0.39780  1.0000
  H   H1        1.0  0.72481  0.98375  0.44177  1.0000
  C   C2        1.0  0.42680  0.20020  0.78050  1.0000
  C   C3        1.0  0.68970  0.02410  0.34170  1.0000
  H   H2        1.0  0.60590  0.02230  0.34637  1.0000
  C   C4        1.0  0.50740  0.18420  0.72590  1.0000
  H   H3        1.0  0.57283  0.16202  0.74090  1.0000
  C   C5        1.0  0.92660  0.02360  0.33120  1.0000
  H   H4        1.0  0.00955  0.02281  0.32674  1.0000
  C   C6        1.0  0.57630  0.20640  0.16600  1.0000
  H   H5        1.0  0.59339  0.21789  0.22539  1.0000
  O   O2        1.0  0.75980  0.06440  0.11147  1.0000
  C   C7        1.0  0.74280  0.05030  0.27740  1.0000
  C   C8        1.0  0.61410  0.14280  0.11540  1.0000
  C   C9        1.0  0.62890  0.55700  0.44490  1.0000
  H   H6        1.0  0.68590  0.57893  0.49778  1.0000
  C   C10       1.0  0.86230  0.04780  0.27090  1.0000
  H   H7        1.0  0.89965  0.06241  0.22610  1.0000
  C   C11       1.0  0.52700  0.17310  0.99250  1.0000
  C   C12       1.0  0.53960  0.44480  0.31470  1.0000
  C   C13       1.0  0.59150  0.12730  0.02870  1.0000
  H   H8        1.0  0.62017  0.08529  0.99406  1.0000
  C   C14       1.0  0.33220  0.23040  0.75220  1.0000
  H   H9        1.0  0.27329  0.24090  0.78626  1.0000
  O   O3        1.0  0.38650  0.34340  0.15140  1.0000
  C   C15       1.0  0.48780  0.23480  0.04320  1.0000
  H   H10       1.0  0.44232  0.26555  0.01849  1.0000
  C   C16       1.0  0.47630  0.57010  0.35390  1.0000
  H   H11       1.0  0.42291  0.60184  0.34061  1.0000
  C   C17       1.0  0.62200  0.47740  0.39220  1.0000
  H   H12       1.0  0.67280  0.44524  0.40862  1.0000
  C   C18       1.0  0.68940  0.09300  0.15040  1.0000
  C   C19       1.0  0.51420  0.25280  0.13070  1.0000
  C   C20       1.0  0.51650  0.15830  0.89860  1.0000
  C   C21       1.0  0.46120  0.49070  0.29690  1.0000
  H   H13       1.0  0.39837  0.46821  0.24658  1.0000
  C   C22       1.0  0.47510  0.32480  0.18100  1.0000
  C   C23       1.0  0.49030  0.20100  0.65000  1.0000
  H   H14       1.0  0.54741  0.19089  0.61427  1.0000
  C   C24       1.0  0.32400  0.24490  0.67580  1.0000
  H   H15       1.0  0.25943  0.26689  0.65886  1.0000
  N   N6        1.0  0.40110  0.23024  0.62238  1.0000
  H   H16       1.0  0.61000  0.36100  0.27200  1.0000
  H   H17       1.0  0.62320  0.09710  0.24370  1.0000
  H   H18       1.0  0.38100  0.19900  0.88500  1.0000
  H   H19       1.0  0.72671  0.75910  0.21374  1.0000
  O   O4        1.0  0.61350  0.65660  0.84860  1.0000
  C   C25       1.0  0.51220  0.76520  0.95680  1.0000
  H   H20       1.0  0.55767  0.73445  0.98151  1.0000
  C   C26       1.0  0.52370  0.42990  0.64610  1.0000
  H   H21       1.0  0.57709  0.39816  0.65939  1.0000
  C   C27       1.0  0.37800  0.52260  0.60780  1.0000
  H   H22       1.0  0.32720  0.55475  0.59138  1.0000
  C   C28       1.0  0.31060  0.90700  0.84960  1.0000
  C   C29       1.0  0.48580  0.74720  0.86930  1.0000
  C   C30       1.0  0.48350  0.84170  0.10140  1.0000
  C   C31       1.0  0.53880  0.50930  0.70310  1.0000
  H   H23       1.0  0.60162  0.53179  0.75342  1.0000
  C   C32       1.0  0.52490  0.67520  0.81900  1.0000
  C   C33       1.0  0.50970  0.79900  0.35000  1.0000
  H   H24       1.0  0.45259  0.80911  0.38573  1.0000
  C   C34       1.0  0.67600  0.75510  0.32420  1.0000
  H   H25       1.0  0.74057  0.73311  0.34114  1.0000
  N   N7        1.0  0.59890  0.76976  0.37762  1.0000
  H   H26       1.0  0.39000  0.63900  0.72800  1.0000
  H   H27       1.0  0.37680  0.90290  0.75630  1.0000
  H   H28       1.0  0.61900  0.80100  0.11500  1.0000
  N   N8        1.0  0.11990  0.99894  0.60470  1.0000
  N   N9        1.0  0.44030  0.39451  0.57407  1.0000
  N   N10       1.0  0.56430  0.80990  0.13913  1.0000
  O   O5        1.0  0.41970  0.87940  0.13848  1.0000
  N   N11       1.0  0.32480  0.91550  0.77340  1.0000
  N   N12       1.0  0.45630  0.63180  0.74070  1.0000
  C   C35       1.0  0.23850  0.99900  0.60220  1.0000
  H   H29       1.0  0.27519  0.01625  0.55823  1.0000
  C   C36       1.0  0.57320  0.79980  0.21950  1.0000
  C   C37       1.0  0.31030  0.97590  0.65830  1.0000
  H   H30       1.0  0.39410  0.97770  0.65363  1.0000
  C   C38       1.0  0.49260  0.81580  0.27410  1.0000
  H   H31       1.0  0.42717  0.83798  0.25910  1.0000
  C   C39       1.0  0.07340  0.97640  0.66880  1.0000
  H   H32       1.0  0.99045  0.97719  0.67326  1.0000
  C   C40       1.0  0.42370  0.79360  0.83400  1.0000
  H   H33       1.0  0.40660  0.78211  0.77461  1.0000
  O   O6        1.0  0.24020  0.93560  0.88853  1.0000
  C   C41       1.0  0.25720  0.94970  0.72260  1.0000
  C   C42       1.0  0.38590  0.85720  0.88460  1.0000
  C   C43       1.0  0.37110  0.44300  0.55510  1.0000
  H   H34       1.0  0.31410  0.42107  0.50222  1.0000
  C   C44       1.0  0.13770  0.95220  0.72910  1.0000
  H   H35       1.0  0.10035  0.93759  0.77390  1.0000
  C   C45       1.0  0.47300  0.82690  0.00750  1.0000
  C   C46       1.0  0.46040  0.55520  0.68530  1.0000
  C   C47       1.0  0.40850  0.87270  0.97130  1.0000
  H   H36       1.0  0.37983  0.91471  0.00594  1.0000
  C   C48       1.0  0.66780  0.76960  0.24780  1.0000
  S   S1        1.0  0.09429  0.86071  0.37647  1.0000
  O   O7        1.0  0.79930  0.74156  0.49488  1.0000
  O   O8        1.0  0.43110  0.73465  0.49400  1.0000
  O   O9        1.0  0.88640  0.87771  0.49275  1.0000
  O   O10       1.0  0.10840  0.95211  0.42098  1.0000
  O   O11       1.0  0.97120  0.81260  0.32379  1.0000
  O   O12       1.0  0.20070  0.85913  0.33501  1.0000
  C   C49       1.0  0.89290  0.80480  0.49656  1.0000
  C   C50       1.0  0.22160  0.79120  0.47310  1.0000
  H   H37       1.0  0.28211  0.80299  0.43880  1.0000
  C   C51       1.0  0.04360  0.75030  0.56740  1.0000
  H   H38       1.0  0.98069  0.73275  0.59856  1.0000
  C   C52       1.0  0.37320  0.74250  0.55450  1.0000
  C   C53       1.0  0.01840  0.78880  0.50600  1.0000
  C   C54       1.0  0.24770  0.75590  0.53660  1.0000
  C   C55       1.0  0.15860  0.73680  0.58470  1.0000
  H   H39       1.0  0.17578  0.71432  0.62994  1.0000
  C   C56       1.0  0.11210  0.80990  0.45729  1.0000
  O   O13       1.0  0.41340  0.74070  0.62655  1.0000
  O   O14       1.0  0.58660  0.25930  0.37345  1.0000
  S   S2        1.0  0.90571  0.13929  0.62353  1.0000
  O   O15       1.0  0.20070  0.25844  0.50512  1.0000
  O   O16       1.0  0.56890  0.26535  0.50600  1.0000
  O   O17       1.0  0.11360  0.12229  0.50725  1.0000
  O   O18       1.0  0.89160  0.04789  0.57902  1.0000
  O   O19       1.0  0.02880  0.18740  0.67621  1.0000
  O   O20       1.0  0.79930  0.14087  0.66499  1.0000
  C   C57       1.0  0.10710  0.19520  0.50344  1.0000
  C   C58       1.0  0.77840  0.20880  0.52690  1.0000
  H   H40       1.0  0.71789  0.19701  0.56120  1.0000
  C   C59       1.0  0.95640  0.24970  0.43260  1.0000
  H   H41       1.0  0.01931  0.26725  0.40145  1.0000
  C   C60       1.0  0.62680  0.25750  0.44550  1.0000
  C   C61       1.0  0.98160  0.21120  0.49400  1.0000
  C   C62       1.0  0.75230  0.24410  0.46340  1.0000
  C   C63       1.0  0.84140  0.26320  0.41530  1.0000
  H   H42       1.0  0.82422  0.28568  0.37006  1.0000
  C   C64       1.0  0.88790  0.19010  0.54271  1.0000
  Ni  Ni1       1.0  0.61307  0.73785  0.49159  1.0000
  Ni  Ni2       1.0  0.00000  0.00000  0.50000  1.0000
  Ni  Ni3       1.0  0.38693  0.26215  0.50841  1.0000
