data_image0
_chemical_formula_structural       CHCHCO3C2HCOC2HC3HCHC2OHCOHCO4C2HCOC2HCHCHCOC2OHCOHCO2C3HCHCOC2HCHCHCO3C2HCO3C2HCOC2HCHCHCO4CO2HCO2CHO4COCO3CO2HO2CHCO4CO2CHO2CHO4COCO5HCO2CHGd4O6Gd5O6Gd5O6GdOGd5O5
_chemical_formula_sum              "C64 H32 O88 Gd20"
_cell_length_a       10.6733
_cell_length_b       10.6855
_cell_length_c       27.844
_cell_angle_alpha    90
_cell_angle_beta     93.178
_cell_angle_gamma    90

_space_group_name_H-M_alt    "P 1"
_space_group_IT_number       1

loop_
  _space_group_symop_operation_xyz
  'x, y, z'

loop_
  _atom_site_type_symbol
  _atom_site_label
  _atom_site_symmetry_multiplicity
  _atom_site_fract_x
  _atom_site_fract_y
  _atom_site_fract_z
  _atom_site_occupancy
  C   C1        1.0  0.19500  0.15400  0.46760  1.0000
  H   H1        1.0  0.14604  0.10303  0.44692  1.0000
  C   C2        1.0  0.18900  0.14200  0.51850  1.0000
  H   H2        1.0  0.14032  0.07966  0.53148  1.0000
  C   C3        1.0  0.27100  0.26400  0.39670  1.0000
  O   O1        1.0  0.25800  0.32200  0.62360  1.0000
  O   O2        1.0  0.16400  0.25200  0.37470  1.0000
  O   O3        1.0  0.37400  0.28400  0.37860  1.0000
  C   C4        1.0  0.27900  0.24500  0.44860  1.0000
  C   C5        1.0  0.35200  0.32400  0.48300  1.0000
  H   H3        1.0  0.40985  0.37852  0.47076  1.0000
  C   C6        1.0  0.26200  0.23200  0.55070  1.0000
  O   O4        1.0  0.22900  0.11600  0.62050  1.0000
  C   C7        1.0  0.24600  0.21500  0.60060  1.0000
  C   C8        1.0  0.34000  0.32400  0.53200  1.0000
  H   H4        1.0  0.38223  0.38156  0.55228  1.0000
  C   C9        1.0  0.88900  0.38500  0.41570  1.0000
  C   C10       1.0  0.05300  0.55500  0.53930  1.0000
  C   C11       1.0  0.00100  0.43600  0.54390  1.0000
  H   H5        1.0  0.00628  0.39283  0.57304  1.0000
  C   C12       1.0  0.05500  0.61200  0.49430  1.0000
  H   H6        1.0  0.09861  0.68689  0.49169  1.0000
  C   C13       1.0  0.94700  0.44500  0.46070  1.0000
  C   C14       1.0  0.99900  0.56400  0.45610  1.0000
  O   O5        1.0  0.09600  0.57800  0.62810  1.0000
  H   H7        1.0  0.99372  0.60717  0.42696  1.0000
  C   C15       1.0  0.94500  0.38800  0.50570  1.0000
  O   O6        1.0  0.19400  0.69900  0.58220  1.0000
  H   H8        1.0  0.90139  0.31311  0.50831  1.0000
  C   C16       1.0  0.11100  0.61500  0.58430  1.0000
  O   O7        1.0  0.80600  0.30100  0.41780  1.0000
  O   O8        1.0  0.90400  0.42200  0.37190  1.0000
  O   O9        1.0  0.83600  0.75200  0.12530  1.0000
  O   O10       1.0  0.62600  0.78400  0.12140  1.0000
  C   C17       1.0  0.72100  0.74500  0.05140  1.0000
  C   C18       1.0  0.64800  0.82400  0.01700  1.0000
  H   H9        1.0  0.59015  0.87852  0.02923  1.0000
  C   C19       1.0  0.73800  0.73200  0.94930  1.0000
  O   O11       1.0  0.77100  0.61600  0.87950  1.0000
  C   C20       1.0  0.75400  0.71500  0.89940  1.0000
  C   C21       1.0  0.66000  0.82400  0.96800  1.0000
  H   H10       1.0  0.61777  0.88156  0.94772  1.0000
  C   C22       1.0  0.80500  0.65400  0.03240  1.0000
  H   H11       1.0  0.85396  0.60303  0.05308  1.0000
  C   C23       1.0  0.81100  0.64200  0.98150  1.0000
  H   H12       1.0  0.85968  0.57966  0.96852  1.0000
  C   C24       1.0  0.72900  0.76400  0.10330  1.0000
  O   O12       1.0  0.74200  0.82200  0.87640  1.0000
  C   C25       1.0  0.05300  0.94500  0.03930  1.0000
  C   C26       1.0  0.00100  0.06400  0.04390  1.0000
  O   O13       1.0  0.90400  0.07800  0.87190  1.0000
  H   H13       1.0  0.00628  0.10717  0.07304  1.0000
  C   C27       1.0  0.05500  0.88800  0.99430  1.0000
  O   O14       1.0  0.80600  0.19900  0.91780  1.0000
  H   H14       1.0  0.09861  0.81311  0.99169  1.0000
  C   C28       1.0  0.88900  0.11500  0.91570  1.0000
  O   O15       1.0  0.09600  0.92200  0.12810  1.0000
  O   O16       1.0  0.19400  0.80100  0.08220  1.0000
  C   C29       1.0  0.11100  0.88500  0.08430  1.0000
  C   C30       1.0  0.94700  0.05500  0.96070  1.0000
  C   C31       1.0  0.99900  0.93600  0.95610  1.0000
  H   H15       1.0  0.99372  0.89283  0.92696  1.0000
  C   C32       1.0  0.94500  0.11200  0.00570  1.0000
  H   H16       1.0  0.90139  0.18689  0.00831  1.0000
  C   C33       1.0  0.73800  0.76800  0.44930  1.0000
  O   O17       1.0  0.77100  0.88400  0.37950  1.0000
  C   C34       1.0  0.75400  0.78500  0.39940  1.0000
  C   C35       1.0  0.66000  0.67600  0.46800  1.0000
  H   H17       1.0  0.61777  0.61844  0.44772  1.0000
  C   C36       1.0  0.80500  0.84600  0.53240  1.0000
  H   H18       1.0  0.85396  0.89697  0.55308  1.0000
  C   C37       1.0  0.81100  0.85800  0.48150  1.0000
  H   H19       1.0  0.85968  0.92034  0.46852  1.0000
  C   C38       1.0  0.72900  0.73600  0.60330  1.0000
  O   O18       1.0  0.74200  0.67800  0.37640  1.0000
  O   O19       1.0  0.83600  0.74800  0.62530  1.0000
  O   O20       1.0  0.62600  0.71600  0.62140  1.0000
  C   C39       1.0  0.72100  0.75500  0.55140  1.0000
  C   C40       1.0  0.64800  0.67600  0.51700  1.0000
  H   H20       1.0  0.59015  0.62148  0.52923  1.0000
  C   C41       1.0  0.27100  0.23600  0.89670  1.0000
  O   O21       1.0  0.25800  0.17800  0.12360  1.0000
  O   O22       1.0  0.16400  0.24800  0.87470  1.0000
  O   O23       1.0  0.37400  0.21600  0.87860  1.0000
  C   C42       1.0  0.27900  0.25500  0.94860  1.0000
  C   C43       1.0  0.35200  0.17600  0.98300  1.0000
  H   H21       1.0  0.40985  0.12148  0.97076  1.0000
  C   C44       1.0  0.26200  0.26800  0.05070  1.0000
  O   O24       1.0  0.22900  0.38400  0.12050  1.0000
  C   C45       1.0  0.24600  0.28500  0.10060  1.0000
  C   C46       1.0  0.34000  0.17600  0.03200  1.0000
  H   H22       1.0  0.38223  0.11844  0.05228  1.0000
  C   C47       1.0  0.19500  0.34600  0.96760  1.0000
  H   H23       1.0  0.14604  0.39697  0.94692  1.0000
  C   C48       1.0  0.18900  0.35800  0.01850  1.0000
  H   H24       1.0  0.14032  0.42034  0.03148  1.0000
  C   C49       1.0  0.61100  0.12800  0.26400  1.0000
  O   O25       1.0  0.71970  0.08860  0.27730  1.0000
  O   O26       1.0  0.53650  0.05290  0.24090  1.0000
  O   O27       1.0  0.57120  0.23300  0.27820  1.0000
  O   O28       1.0  0.21750  0.55870  0.72540  1.0000
  C   C50       1.0  0.10600  0.58800  0.73760  1.0000
  O   O29       1.0  0.04130  0.52440  0.76210  1.0000
  O   O30       1.0  0.07110  0.70200  0.72490  1.0000
  H   H25       1.0  0.17109  0.84489  0.38601  1.0000
  C   C51       1.0  0.12300  0.89200  0.36390  1.0000
  O   O31       1.0  0.18900  0.00280  0.34970  1.0000
  O   O32       1.0  0.02500  0.84500  0.35510  1.0000
  C   C52       1.0  0.61300  0.35500  0.64340  1.0000
  H   H26       1.0  0.66429  0.30068  0.62752  1.0000
  O   O33       1.0  0.50800  0.31200  0.65240  1.0000
  O   O34       1.0  0.65800  0.45640  0.65200  1.0000
  O   O35       1.0  0.46350  0.55290  0.25910  1.0000
  O   O36       1.0  0.42880  0.73300  0.22180  1.0000
  C   C53       1.0  0.38900  0.62800  0.23600  1.0000
  O   O37       1.0  0.28030  0.58860  0.22270  1.0000
  C   C54       1.0  0.89400  0.08800  0.76240  1.0000
  O   O38       1.0  0.92890  0.20200  0.77510  1.0000
  O   O39       1.0  0.95870  0.02440  0.73790  1.0000
  O   O40       1.0  0.78250  0.05870  0.77460  1.0000
  C   C55       1.0  0.87700  0.39200  0.13610  1.0000
  O   O41       1.0  0.81100  0.50280  0.15030  1.0000
  O   O42       1.0  0.97500  0.34500  0.14490  1.0000
  H   H27       1.0  0.82891  0.34489  0.11399  1.0000
  O   O43       1.0  0.49200  0.81200  0.84760  1.0000
  O   O44       1.0  0.34200  0.95640  0.84800  1.0000
  C   C56       1.0  0.38700  0.85500  0.85660  1.0000
  H   H28       1.0  0.33571  0.80068  0.87248  1.0000
  C   C57       1.0  0.38900  0.87200  0.73600  1.0000
  O   O45       1.0  0.28030  0.91140  0.72270  1.0000
  O   O46       1.0  0.46350  0.94710  0.75910  1.0000
  O   O47       1.0  0.42880  0.76700  0.72180  1.0000
  O   O48       1.0  0.78250  0.44130  0.27460  1.0000
  C   C58       1.0  0.89400  0.41200  0.26240  1.0000
  O   O49       1.0  0.95870  0.47560  0.23790  1.0000
  O   O50       1.0  0.92890  0.29800  0.27510  1.0000
  C   C59       1.0  0.87700  0.10800  0.63610  1.0000
  H   H29       1.0  0.82891  0.15511  0.61399  1.0000
  O   O51       1.0  0.81100  0.99720  0.65030  1.0000
  O   O52       1.0  0.97500  0.15500  0.64490  1.0000
  C   C60       1.0  0.38700  0.64500  0.35660  1.0000
  H   H30       1.0  0.33571  0.69932  0.37248  1.0000
  O   O53       1.0  0.49200  0.68800  0.34760  1.0000
  O   O54       1.0  0.34200  0.54360  0.34800  1.0000
  O   O55       1.0  0.53650  0.44710  0.74090  1.0000
  O   O56       1.0  0.57120  0.26700  0.77820  1.0000
  C   C61       1.0  0.61100  0.37200  0.76400  1.0000
  O   O57       1.0  0.71970  0.41140  0.77730  1.0000
  C   C62       1.0  0.10600  0.91200  0.23760  1.0000
  O   O58       1.0  0.07110  0.79800  0.22490  1.0000
  O   O59       1.0  0.21750  0.94130  0.22540  1.0000
  O   O60       1.0  0.04130  0.97560  0.26210  1.0000
  O   O61       1.0  0.18900  0.49720  0.84970  1.0000
  O   O62       1.0  0.02500  0.65500  0.85510  1.0000
  H   H31       1.0  0.17109  0.65511  0.88601  1.0000
  C   C63       1.0  0.12300  0.60800  0.86390  1.0000
  O   O63       1.0  0.50800  0.18800  0.15240  1.0000
  O   O64       1.0  0.65800  0.04360  0.15200  1.0000
  C   C64       1.0  0.61300  0.14500  0.14340  1.0000
  H   H32       1.0  0.66429  0.19932  0.12752  1.0000
  Gd  Gd1       1.0  0.33473  0.38423  0.70072  1.0000
  Gd  Gd2       1.0  0.10664  0.17392  0.29911  1.0000
  Gd  Gd3       1.0  0.40467  0.36012  0.29986  1.0000
  Gd  Gd4       1.0  0.15146  0.08537  0.69888  1.0000
  O   O65       1.0  0.07970  0.89250  0.66000  1.0000
  O   O66       1.0  0.39770  0.57460  0.66150  1.0000
  O   O67       1.0  0.18690  0.38290  0.28500  1.0000
  O   O68       1.0  0.13220  0.30090  0.71470  1.0000
  O   O69       1.0  0.32060  0.15880  0.28660  1.0000
  O   O70       1.0  0.64470  0.82950  0.28470  1.0000
  Gd  Gd5       1.0  0.76205  0.26761  0.33281  1.0000
  Gd  Gd6       1.0  0.33473  0.11577  0.20072  1.0000
  Gd  Gd7       1.0  0.10664  0.32608  0.79911  1.0000
  Gd  Gd8       1.0  0.40467  0.13988  0.79986  1.0000
  Gd  Gd9       1.0  0.15146  0.41463  0.19888  1.0000
  O   O71       1.0  0.07970  0.60750  0.16000  1.0000
  O   O72       1.0  0.39770  0.92540  0.16150  1.0000
  O   O73       1.0  0.18690  0.11710  0.78500  1.0000
  O   O74       1.0  0.13220  0.19910  0.21470  1.0000
  O   O75       1.0  0.35530  0.17050  0.71530  1.0000
  O   O76       1.0  0.32060  0.34120  0.78660  1.0000
  Gd  Gd10      1.0  0.23795  0.73239  0.66719  1.0000
  Gd  Gd11      1.0  0.66527  0.88423  0.79928  1.0000
  Gd  Gd12      1.0  0.89336  0.67392  0.20089  1.0000
  Gd  Gd13      1.0  0.59533  0.86012  0.20014  1.0000
  Gd  Gd14      1.0  0.84854  0.58537  0.80112  1.0000
  O   O77       1.0  0.92030  0.39250  0.84000  1.0000
  O   O78       1.0  0.60230  0.07460  0.83850  1.0000
  O   O79       1.0  0.81310  0.88290  0.21500  1.0000
  O   O80       1.0  0.86780  0.80090  0.78530  1.0000
  O   O81       1.0  0.67940  0.65880  0.21340  1.0000
  O   O82       1.0  0.35530  0.32950  0.21530  1.0000
  Gd  Gd15      1.0  0.23795  0.76761  0.16719  1.0000
  O   O83       1.0  0.64470  0.67050  0.78470  1.0000
  Gd  Gd16      1.0  0.76205  0.23239  0.83281  1.0000
  Gd  Gd17      1.0  0.66527  0.61577  0.29928  1.0000
  Gd  Gd18      1.0  0.89336  0.82608  0.70089  1.0000
  Gd  Gd19      1.0  0.59533  0.63988  0.70014  1.0000
  Gd  Gd20      1.0  0.84854  0.91463  0.30112  1.0000
  O   O84       1.0  0.92030  0.10750  0.34000  1.0000
  O   O85       1.0  0.60230  0.42540  0.33850  1.0000
  O   O86       1.0  0.81310  0.61710  0.71500  1.0000
  O   O87       1.0  0.86780  0.69910  0.28530  1.0000
  O   O88       1.0  0.67940  0.84120  0.71340  1.0000
