data_image0
_chemical_formula_structural       O2N2C2HCHCHCHCH2C3HCHCHCHC4HCHCHCHC2H2CHCHC2HCHO2N2C2HCHCHCHCH2C3HCHCHCHC4HCHCHCHC2H2CHCHC2HCHC3HCOCHCHNCHOHNCHC2HC2HC3HCHCHCHCH2C3HCHCHCHCH2O2N2C2HCHCHCHCH2C3HCHCHCHC4HCHCHCHC2H2CHCHC2HCHO2N2C2HCHCHCHCH2C3HCHCHCHC4HCHCHCHC2H2CHCHC2HCHCo2
_chemical_formula_sum              "O10 N10 C130 H100 Co2"
_cell_length_a       14.095
_cell_length_b       15.145
_cell_length_c       19.285
_cell_angle_alpha    91.022
_cell_angle_beta     102.243
_cell_angle_gamma    97.748

_space_group_name_H-M_alt    "P 1"
_space_group_IT_number       1

loop_
  _space_group_symop_operation_xyz
  'x, y, z'

loop_
  _atom_site_type_symbol
  _atom_site_label
  _atom_site_symmetry_multiplicity
  _atom_site_fract_x
  _atom_site_fract_y
  _atom_site_fract_z
  _atom_site_occupancy
  O   O1        1.0  0.48123  0.68065  0.27648  1.0000
  O   O2        1.0  0.28105  0.61133  0.20463  1.0000
  N   N1        1.0  0.68724  0.89190  0.26481  1.0000
  N   N2        1.0  0.18254  0.85062  0.22196  1.0000
  C   C1        1.0  0.54840  0.74405  0.27445  1.0000
  C   C2        1.0  0.55140  0.82840  0.30840  1.0000
  H   H1        1.0  0.50555  0.83558  0.33562  1.0000
  C   C3        1.0  0.61860  0.89880  0.30250  1.0000
  H   H2        1.0  0.61718  0.95323  0.32508  1.0000
  C   C4        1.0  0.69040  0.81184  0.23363  1.0000
  H   H3        1.0  0.73911  0.80683  0.20853  1.0000
  C   C5        1.0  0.62520  0.73878  0.23768  1.0000
  H   H4        1.0  0.63057  0.68472  0.21625  1.0000
  C   C6        1.0  0.75180  0.97408  0.25283  1.0000
  H   H5        1.0  0.75851  0.01694  0.29216  1.0000
  H   H6        1.0  0.72053  0.00030  0.20993  1.0000
  C   C7        1.0  0.85330  0.95736  0.24585  1.0000
  C   C8        1.0  0.87660  0.95067  0.17912  1.0000
  C   C9        1.0  0.80470  0.95040  0.11400  1.0000
  H   H7        1.0  0.74055  0.95694  0.11578  1.0000
  C   C10       1.0  0.82860  0.94090  0.05010  1.0000
  H   H8        1.0  0.78089  0.93976  0.00846  1.0000
  C   C11       1.0  0.92550  0.93280  0.04710  1.0000
  H   H9        1.0  0.94138  0.92672  0.00304  1.0000
  C   C12       1.0  0.99570  0.93350  0.10590  1.0000
  H   H10       1.0  0.05935  0.92886  0.10166  1.0000
  C   C13       1.0  0.97550  0.94129  0.17480  1.0000
  C   C14       1.0  0.04740  0.93980  0.23720  1.0000
  C   C15       1.0  0.02170  0.93910  0.30380  1.0000
  C   C16       1.0  0.08860  0.92720  0.37000  1.0000
  H   H11       1.0  0.15404  0.92480  0.36962  1.0000
  C   C17       1.0  0.05990  0.91970  0.43200  1.0000
  H   H12       1.0  0.10487  0.90987  0.47298  1.0000
  C   C18       1.0  0.96310  0.92630  0.43580  1.0000
  H   H13       1.0  0.94381  0.92001  0.47884  1.0000
  C   C19       1.0  0.89720  0.94210  0.37640  1.0000
  H   H14       1.0  0.83415  0.94987  0.38013  1.0000
  C   C20       1.0  0.92250  0.94710  0.30783  1.0000
  C   C21       1.0  0.15500  0.94140  0.23310  1.0000
  H   H15       1.0  0.16802  0.97793  0.19447  1.0000
  H   H16       1.0  0.19637  0.96926  0.27686  1.0000
  C   C22       1.0  0.26380  0.84580  0.19574  1.0000
  H   H17       1.0  0.29700  0.89777  0.18230  1.0000
  C   C23       1.0  0.29810  0.76740  0.18850  1.0000
  H   H18       1.0  0.35361  0.76695  0.16975  1.0000
  C   C24       1.0  0.25170  0.68660  0.20890  1.0000
  C   C25       1.0  0.16690  0.69570  0.23650  1.0000
  H   H19       1.0  0.13191  0.64528  0.25078  1.0000
  C   C26       1.0  0.13660  0.77580  0.24250  1.0000
  H   H20       1.0  0.08175  0.77900  0.26148  1.0000
  O   O3        1.0  0.56018  0.52883  0.23028  1.0000
  O   O4        1.0  0.35781  0.45296  0.14998  1.0000
  N   N3        1.0  0.66838  0.29163  0.24833  1.0000
  N   N4        1.0  0.14736  0.24743  0.17104  1.0000
  C   C27       1.0  0.59390  0.45510  0.23925  1.0000
  C   C28       1.0  0.69090  0.44690  0.23360  1.0000
  H   H21       1.0  0.73247  0.49764  0.22677  1.0000
  C   C29       1.0  0.72490  0.36730  0.23790  1.0000
  H   H22       1.0  0.78889  0.36476  0.23349  1.0000
  C   C30       1.0  0.57720  0.29690  0.25815  1.0000
  H   H23       1.0  0.53904  0.24557  0.26794  1.0000
  C   C31       1.0  0.53950  0.37530  0.25413  1.0000
  H   H24       1.0  0.47646  0.37622  0.26135  1.0000
  C   C32       1.0  0.70010  0.20130  0.24990  1.0000
  H   H25       1.0  0.65166  0.16116  0.21639  1.0000
  H   H26       1.0  0.70222  0.17886  0.29689  1.0000
  C   C33       1.0  0.79950  0.20058  0.23190  1.0000
  C   C34       1.0  0.80720  0.18931  0.16130  1.0000
  C   C35       1.0  0.72350  0.18090  0.10230  1.0000
  H   H27       1.0  0.66138  0.18163  0.11146  1.0000
  C   C36       1.0  0.73260  0.17190  0.03470  1.0000
  H   H28       1.0  0.67719  0.16641  0.99797  1.0000
  C   C37       1.0  0.82590  0.17090  0.01910  1.0000
  H   H29       1.0  0.83175  0.16606  0.97209  1.0000
  C   C38       1.0  0.90650  0.17690  0.07210  1.0000
  H   H30       1.0  0.96739  0.17628  0.06078  1.0000
  C   C39       1.0  0.90120  0.18428  0.14473  1.0000
  C   C40       1.0  0.98480  0.18675  0.20056  1.0000
  C   C41       1.0  0.97740  0.20220  0.27046  1.0000
  C   C42       1.0  0.06100  0.21150  0.32900  1.0000
  H   H31       1.0  0.12220  0.20504  0.32047  1.0000
  C   C43       1.0  0.05260  0.22980  0.39720  1.0000
  H   H32       1.0  0.10789  0.23726  0.43416  1.0000
  C   C44       1.0  0.96070  0.23700  0.41070  1.0000
  H   H33       1.0  0.95544  0.24843  0.45719  1.0000
  C   C45       1.0  0.87970  0.22810  0.35880  1.0000
  H   H34       1.0  0.81957  0.23320  0.37000  1.0000
  C   C46       1.0  0.88410  0.21090  0.28700  1.0000
  C   C47       1.0  0.08110  0.16810  0.18550  1.0000
  H   H35       1.0  0.11557  0.13934  0.22592  1.0000
  H   H36       1.0  0.06748  0.12612  0.14485  1.0000
  C   C48       1.0  0.13780  0.33230  0.18700  1.0000
  H   H37       1.0  0.08255  0.34328  0.20305  1.0000
  C   C49       1.0  0.20560  0.40200  0.18060  1.0000
  H   H38       1.0  0.19617  0.45938  0.19276  1.0000
  C   C50       1.0  0.29060  0.38950  0.15560  1.0000
  C   C51       1.0  0.29730  0.29980  0.13810  1.0000
  H   H39       1.0  0.35043  0.28676  0.12025  1.0000
  C   C52       1.0  0.22840  0.23310  0.14690  1.0000
  H   H40       1.0  0.23637  0.17479  0.13611  1.0000
  C   C53       1.0  0.90110  0.45900  0.49270  1.0000
  C   C54       1.0  0.92170  0.53510  0.45340  1.0000
  C   C55       1.0  0.84580  0.57510  0.40890  1.0000
  H   H41       1.0  0.78071  0.54967  0.40370  1.0000
  C   C56       1.0  0.86800  0.64990  0.37430  1.0000
  O   O5        1.0  0.38565  0.49609  0.30118  1.0000
  C   C57       1.0  0.96500  0.68790  0.37840  1.0000
  H   H42       1.0  0.97855  0.73725  0.35233  1.0000
  C   C58       1.0  0.03970  0.65290  0.42040  1.0000
  H   H43       1.0  0.10402  0.67896  0.42294  1.0000
  N   N5        1.0  0.24660  0.56210  0.45450  1.0000
  C   C59       1.0  0.02100  0.57700  0.46070  1.0000
  H   H44       1.0  0.81748  0.67631  0.34738  1.0000
  O   O6        1.0  0.61435  0.50391  0.69882  1.0000
  H   H45       1.0  0.80562  0.56686  0.55411  1.0000
  N   N6        1.0  0.75340  0.43790  0.54550  1.0000
  C   C60       1.0  0.72290  0.54520  0.62300  1.0000
  H   H46       1.0  0.73450  0.60436  0.64005  1.0000
  C   C61       1.0  0.65950  0.48300  0.65330  1.0000
  C   C62       1.0  0.65160  0.39400  0.62330  1.0000
  H   H47       1.0  0.61388  0.34811  0.64082  1.0000
  C   C63       1.0  0.69510  0.37460  0.57220  1.0000
  C   C64       1.0  0.79740  0.41330  0.48360  1.0000
  H   H48       1.0  0.68571  0.31608  0.55393  1.0000
  C   C65       1.0  0.76590  0.52310  0.57210  1.0000
  C   C66       1.0  0.34050  0.51700  0.34670  1.0000
  C   C67       1.0  0.34840  0.60600  0.37670  1.0000
  H   H49       1.0  0.38612  0.65189  0.35918  1.0000
  C   C68       1.0  0.30490  0.62540  0.42780  1.0000
  H   H50       1.0  0.31429  0.68392  0.44607  1.0000
  C   C69       1.0  0.23410  0.47690  0.42790  1.0000
  H   H51       1.0  0.19438  0.43314  0.44589  1.0000
  C   C70       1.0  0.27710  0.45480  0.37700  1.0000
  H   H52       1.0  0.26550  0.39564  0.35995  1.0000
  C   C71       1.0  0.20260  0.58670  0.51640  1.0000
  H   H53       1.0  0.24196  0.56948  0.56030  1.0000
  H   H54       1.0  0.20349  0.65082  0.51950  1.0000
  C   C72       1.0  0.09890  0.54100  0.50730  1.0000
  C   C73       1.0  0.07830  0.46490  0.54660  1.0000
  C   C74       1.0  0.15420  0.42490  0.59110  1.0000
  H   H55       1.0  0.21929  0.45033  0.59630  1.0000
  C   C75       1.0  0.13200  0.35010  0.62570  1.0000
  H   H56       1.0  0.18252  0.32369  0.65262  1.0000
  C   C76       1.0  0.03500  0.31210  0.62160  1.0000
  H   H57       1.0  0.02145  0.26275  0.64767  1.0000
  C   C77       1.0  0.96030  0.34710  0.57960  1.0000
  H   H58       1.0  0.89598  0.32104  0.57706  1.0000
  C   C78       1.0  0.97900  0.42300  0.53930  1.0000
  H   H59       1.0  0.75804  0.43052  0.43970  1.0000
  H   H60       1.0  0.79651  0.34918  0.48050  1.0000
  O   O7        1.0  0.51877  0.31935  0.72352  1.0000
  O   O8        1.0  0.71895  0.38867  0.79537  1.0000
  N   N7        1.0  0.31276  0.10810  0.73519  1.0000
  N   N8        1.0  0.81746  0.14938  0.77804  1.0000
  C   C79       1.0  0.45160  0.25595  0.72555  1.0000
  C   C80       1.0  0.44860  0.17160  0.69160  1.0000
  H   H61       1.0  0.49445  0.16442  0.66438  1.0000
  C   C81       1.0  0.38140  0.10120  0.69750  1.0000
  H   H62       1.0  0.38282  0.04677  0.67492  1.0000
  C   C82       1.0  0.30960  0.18816  0.76637  1.0000
  H   H63       1.0  0.26089  0.19317  0.79147  1.0000
  C   C83       1.0  0.37480  0.26122  0.76232  1.0000
  H   H64       1.0  0.36943  0.31528  0.78375  1.0000
  C   C84       1.0  0.24820  0.02592  0.74717  1.0000
  H   H65       1.0  0.24149  0.98306  0.70784  1.0000
  H   H66       1.0  0.27947  0.99970  0.79007  1.0000
  C   C85       1.0  0.14670  0.04264  0.75415  1.0000
  C   C86       1.0  0.12340  0.04933  0.82088  1.0000
  C   C87       1.0  0.19530  0.04960  0.88600  1.0000
  H   H67       1.0  0.25945  0.04306  0.88422  1.0000
  C   C88       1.0  0.17140  0.05910  0.94990  1.0000
  H   H68       1.0  0.21911  0.06024  0.99154  1.0000
  C   C89       1.0  0.07450  0.06720  0.95290  1.0000
  H   H69       1.0  0.05862  0.07328  0.99696  1.0000
  C   C90       1.0  0.00430  0.06650  0.89410  1.0000
  H   H70       1.0  0.94065  0.07114  0.89834  1.0000
  C   C91       1.0  0.02450  0.05871  0.82520  1.0000
  C   C92       1.0  0.95260  0.06020  0.76280  1.0000
  C   C93       1.0  0.97830  0.06090  0.69620  1.0000
  C   C94       1.0  0.91140  0.07280  0.63000  1.0000
  H   H71       1.0  0.84596  0.07520  0.63038  1.0000
  C   C95       1.0  0.94010  0.08030  0.56800  1.0000
  H   H72       1.0  0.89513  0.09013  0.52702  1.0000
  C   C96       1.0  0.03690  0.07370  0.56420  1.0000
  H   H73       1.0  0.05619  0.07999  0.52116  1.0000
  C   C97       1.0  0.10280  0.05790  0.62360  1.0000
  H   H74       1.0  0.16585  0.05013  0.61987  1.0000
  C   C98       1.0  0.07750  0.05290  0.69217  1.0000
  C   C99       1.0  0.84500  0.05860  0.76690  1.0000
  H   H75       1.0  0.83198  0.02207  0.80553  1.0000
  H   H76       1.0  0.80363  0.03074  0.72314  1.0000
  C   C100      1.0  0.73620  0.15420  0.80426  1.0000
  H   H77       1.0  0.70300  0.10223  0.81770  1.0000
  C   C101      1.0  0.70190  0.23260  0.81150  1.0000
  H   H78       1.0  0.64639  0.23305  0.83025  1.0000
  C   C102      1.0  0.74830  0.31340  0.79110  1.0000
  C   C103      1.0  0.83310  0.30430  0.76350  1.0000
  H   H79       1.0  0.86809  0.35472  0.74922  1.0000
  C   C104      1.0  0.86340  0.22420  0.75750  1.0000
  H   H80       1.0  0.91825  0.22100  0.73852  1.0000
  O   O9        1.0  0.43982  0.47117  0.76972  1.0000
  O   O10       1.0  0.64219  0.54704  0.85002  1.0000
  N   N9        1.0  0.33162  0.70837  0.75167  1.0000
  N   N10       1.0  0.85264  0.75257  0.82896  1.0000
  C   C105      1.0  0.40610  0.54490  0.76075  1.0000
  C   C106      1.0  0.30910  0.55310  0.76640  1.0000
  H   H81       1.0  0.26753  0.50236  0.77323  1.0000
  C   C107      1.0  0.27510  0.63270  0.76210  1.0000
  H   H82       1.0  0.21111  0.63524  0.76651  1.0000
  C   C108      1.0  0.42280  0.70310  0.74185  1.0000
  H   H83       1.0  0.46096  0.75443  0.73206  1.0000
  C   C109      1.0  0.46050  0.62470  0.74587  1.0000
  H   H84       1.0  0.52354  0.62378  0.73865  1.0000
  C   C110      1.0  0.29990  0.79870  0.75010  1.0000
  H   H85       1.0  0.34834  0.83884  0.78361  1.0000
  H   H86       1.0  0.29778  0.82114  0.70311  1.0000
  C   C111      1.0  0.20050  0.79942  0.76810  1.0000
  C   C112      1.0  0.19280  0.81069  0.83870  1.0000
  C   C113      1.0  0.27650  0.81910  0.89770  1.0000
  H   H87       1.0  0.33862  0.81837  0.88854  1.0000
  C   C114      1.0  0.26740  0.82810  0.96530  1.0000
  H   H88       1.0  0.32281  0.83359  0.00203  1.0000
  C   C115      1.0  0.17410  0.82910  0.98090  1.0000
  H   H89       1.0  0.16825  0.83394  0.02791  1.0000
  C   C116      1.0  0.09350  0.82310  0.92790  1.0000
  H   H90       1.0  0.03261  0.82372  0.93922  1.0000
  C   C117      1.0  0.09880  0.81572  0.85527  1.0000
  C   C118      1.0  0.01520  0.81325  0.79944  1.0000
  C   C119      1.0  0.02260  0.79780  0.72954  1.0000
  C   C120      1.0  0.93900  0.78850  0.67100  1.0000
  H   H91       1.0  0.87780  0.79496  0.67953  1.0000
  C   C121      1.0  0.94740  0.77020  0.60280  1.0000
  H   H92       1.0  0.89211  0.76274  0.56584  1.0000
  C   C122      1.0  0.03930  0.76300  0.58930  1.0000
  H   H93       1.0  0.04456  0.75157  0.54281  1.0000
  C   C123      1.0  0.12030  0.77190  0.64120  1.0000
  H   H94       1.0  0.18043  0.76680  0.63000  1.0000
  C   C124      1.0  0.11590  0.78910  0.71300  1.0000
  C   C125      1.0  0.91890  0.83190  0.81450  1.0000
  H   H95       1.0  0.88443  0.86066  0.77408  1.0000
  H   H96       1.0  0.93252  0.87388  0.85515  1.0000
  C   C126      1.0  0.86220  0.66770  0.81300  1.0000
  H   H97       1.0  0.91745  0.65672  0.79695  1.0000
  C   C127      1.0  0.79440  0.59800  0.81940  1.0000
  H   H98       1.0  0.80383  0.54062  0.80724  1.0000
  C   C128      1.0  0.70940  0.61050  0.84440  1.0000
  C   C129      1.0  0.70270  0.70020  0.86190  1.0000
  H   H99       1.0  0.64957  0.71324  0.87975  1.0000
  C   C130      1.0  0.77160  0.76690  0.85310  1.0000
  H   H100      1.0  0.76363  0.82521  0.86389  1.0000
  Co  Co1       1.0  0.42008  0.56601  0.21488  1.0000
  Co  Co2       1.0  0.57992  0.43399  0.78512  1.0000
