data_image0
_chemical_formula_structural       C7HCHCHCHC2N2HO3HO3C7HCHCHCHC2N2HO3HO3CHCHC2HCHNCHCHC2HCHNMn2
_chemical_formula_sum              "C34 H20 N6 O12 Mn2"
_cell_length_a       10.2225
_cell_length_b       11.0737
_cell_length_c       11.3556
_cell_angle_alpha    91.38
_cell_angle_beta     111.018
_cell_angle_gamma    117.458

_space_group_name_H-M_alt    "P 1"
_space_group_IT_number       1

loop_
  _space_group_symop_operation_xyz
  'x, y, z'

loop_
  _atom_site_type_symbol
  _atom_site_label
  _atom_site_symmetry_multiplicity
  _atom_site_fract_x
  _atom_site_fract_y
  _atom_site_fract_z
  _atom_site_occupancy
  C   C1        1.0  0.18730  0.79830  0.88080  1.0000
  C   C2        1.0  0.26610  0.94000  0.96350  1.0000
  C   C3        1.0  0.36500  0.06990  0.95130  1.0000
  C   C4        1.0  0.43400  0.11910  0.85570  1.0000
  C   C5        1.0  0.32940  0.08900  0.12910  1.0000
  C   C6        1.0  0.35250  0.15300  0.25580  1.0000
  C   C7        1.0  0.40400  0.10050  0.36210  1.0000
  H   H1        1.0  0.41890  0.02480  0.35150  1.0000
  C   C8        1.0  0.43330  0.16090  0.48420  1.0000
  H   H2        1.0  0.46580  0.12440  0.55470  1.0000
  C   C9        1.0  0.41430  0.27500  0.50130  1.0000
  H   H3        1.0  0.43510  0.31600  0.58320  1.0000
  C   C10       1.0  0.36410  0.32750  0.39560  1.0000
  H   H4        1.0  0.35270  0.40490  0.40730  1.0000
  C   C11       1.0  0.33040  0.26670  0.27190  1.0000
  C   C12       1.0  0.25720  0.31790  0.15880  1.0000
  N   N1        1.0  0.24410  0.95300  0.07510  1.0000
  N   N2        1.0  0.40410  0.16210  0.05670  1.0000
  H   H5        1.0  0.46570  0.25140  0.07410  1.0000
  O   O1        1.0  0.10590  0.69660  0.91910  1.0000
  O   O2        1.0  0.20610  0.78840  0.77840  1.0000
  O   O3        1.0  0.39570  0.02540  0.75920  1.0000
  H   H6        1.0  0.33300  0.94700  0.76100  1.0000
  O   O4        1.0  0.52660  0.24320  0.87110  1.0000
  O   O5        1.0  0.13250  0.22640  0.06450  1.0000
  O   O6        1.0  0.32350  0.44650  0.16770  1.0000
  C   C13       1.0  0.81270  0.20170  0.11920  1.0000
  C   C14       1.0  0.73390  0.06000  0.03650  1.0000
  C   C15       1.0  0.63500  0.93010  0.04870  1.0000
  C   C16       1.0  0.56600  0.88090  0.14430  1.0000
  C   C17       1.0  0.67060  0.91100  0.87090  1.0000
  C   C18       1.0  0.64750  0.84700  0.74420  1.0000
  C   C19       1.0  0.59600  0.89950  0.63790  1.0000
  H   H7        1.0  0.58110  0.97520  0.64850  1.0000
  C   C20       1.0  0.56670  0.83910  0.51580  1.0000
  H   H8        1.0  0.53420  0.87560  0.44530  1.0000
  C   C21       1.0  0.58570  0.72500  0.49870  1.0000
  H   H9        1.0  0.56490  0.68400  0.41680  1.0000
  C   C22       1.0  0.63590  0.67250  0.60440  1.0000
  H   H10       1.0  0.64730  0.59510  0.59270  1.0000
  C   C23       1.0  0.66960  0.73330  0.72810  1.0000
  C   C24       1.0  0.74280  0.68210  0.84120  1.0000
  N   N3        1.0  0.75590  0.04700  0.92490  1.0000
  N   N4        1.0  0.59590  0.83790  0.94330  1.0000
  H   H11       1.0  0.53430  0.74860  0.92590  1.0000
  O   O7        1.0  0.89410  0.30340  0.08090  1.0000
  O   O8        1.0  0.79390  0.21160  0.22160  1.0000
  O   O9        1.0  0.60430  0.97460  0.24080  1.0000
  H   H12       1.0  0.66700  0.05300  0.23900  1.0000
  O   O10       1.0  0.47340  0.75680  0.12890  1.0000
  O   O11       1.0  0.86750  0.77360  0.93550  1.0000
  O   O12       1.0  0.67650  0.55350  0.83230  1.0000
  C   C25       1.0  0.99630  0.94300  0.23240  1.0000
  H   H13       1.0  0.98820  0.97690  0.15750  1.0000
  C   C26       1.0  0.98970  0.01110  0.33210  1.0000
  H   H14       1.0  0.97720  0.08890  0.32320  1.0000
  C   C27       1.0  0.00160  0.96350  0.44490  1.0000
  C   C28       1.0  0.01600  0.84500  0.45010  1.0000
  H   H15       1.0  0.02050  0.80700  0.52260  1.0000
  C   C29       1.0  0.02360  0.78410  0.34780  1.0000
  H   H16       1.0  0.03600  0.70610  0.35430  1.0000
  N   N5        1.0  0.01390  0.83090  0.23920  1.0000
  C   C30       1.0  0.00370  0.05700  0.76760  1.0000
  H   H17       1.0  0.01180  0.02310  0.84250  1.0000
  C   C31       1.0  0.01030  0.98890  0.66790  1.0000
  H   H18       1.0  0.02280  0.91110  0.67680  1.0000
  C   C32       1.0  0.99840  0.03650  0.55510  1.0000
  C   C33       1.0  0.98400  0.15500  0.54990  1.0000
  H   H19       1.0  0.97950  0.19300  0.47740  1.0000
  C   C34       1.0  0.97640  0.21590  0.65220  1.0000
  H   H20       1.0  0.96400  0.29390  0.64570  1.0000
  N   N6        1.0  0.98610  0.16910  0.76080  1.0000
  Mn  Mn1       1.0  0.04933  0.74506  0.08194  1.0000
  Mn  Mn2       1.0  0.95067  0.25494  0.91806  1.0000
