data_image0
_chemical_formula_structural       C3HC3HC2HCHN2CHNO4NCHN2CHC3HC3HC2HO4C3HC3HC2HCHN2CHNO4NCHN2CHC3HC3HC2HO7C3HC3HC2HCHN2CHNO5NCHN2CHC3HC3HC2HC3HC3HC2HCHN2CHNO4NCHN2CHC3HC3HC2HO4C3HC3HC2HCHN2CHNO4NCHN2CHC3HC3HC2HO4NO4C3HC3HC2HCHN2CH2C2HO4NCHN2CHC3HC6HC3HC2HCHN2CHNO4NCHN2CHC3HC3HC2HO4C3HC3HC2HCHN2CHNO4NCHN2CHC3HC3HC2HO4In8
_chemical_formula_sum              "C160 H80 N48 O64 In8"
_cell_length_a       26.6386
_cell_length_b       26.6386
_cell_length_c       9.8419
_cell_angle_alpha    90
_cell_angle_beta     90
_cell_angle_gamma    90

_space_group_name_H-M_alt    "P 1"
_space_group_IT_number       1

loop_
  _space_group_symop_operation_xyz
  'x, y, z'

loop_
  _atom_site_type_symbol
  _atom_site_label
  _atom_site_symmetry_multiplicity
  _atom_site_fract_x
  _atom_site_fract_y
  _atom_site_fract_z
  _atom_site_occupancy
  C   C1        1.0  0.91823  0.99912  0.71830  1.0000
  C   C2        1.0  0.93351  0.97893  0.58470  1.0000
  C   C3        1.0  0.91620  0.99980  0.46420  1.0000
  H   H1        1.0  0.89500  0.02760  0.46540  1.0000
  C   C4        1.0  0.93080  0.97850  0.34210  1.0000
  C   C5        1.0  0.91180  0.99770  0.21170  1.0000
  C   C6        1.0  0.96300  0.93890  0.33660  1.0000
  H   H2        1.0  0.97250  0.92540  0.25340  1.0000
  C   C7        1.0  0.98120  0.91930  0.45520  1.0000
  C   C8        1.0  0.96650  0.93860  0.57990  1.0000
  H   H3        1.0  0.97870  0.92460  0.65990  1.0000
  C   C9        1.0  0.02230  0.84670  0.34600  1.0000
  H   H4        1.0  0.00230  0.84540  0.26870  1.0000
  N   N1        1.0  0.06390  0.81550  0.37800  1.0000
  N   N2        1.0  0.08310  0.83080  0.50620  1.0000
  C   C10       1.0  0.05320  0.87141  0.55340  1.0000
  H   H5        1.0  0.05690  0.88900  0.63440  1.0000
  N   N3        1.0  0.01810  0.87920  0.45470  1.0000
  O   O1        1.0  0.93024  0.97524  0.82270  1.0000
  O   O2        1.0  0.89403  0.04009  0.72790  1.0000
  O   O3        1.0  0.89302  0.03900  0.20370  1.0000
  O   O4        1.0  0.91560  0.97320  0.10490  1.0000
  N   N4        1.0  0.11020  0.16985  0.17210  1.0000
  C   C11       1.0  0.13641  0.12357  0.16240  1.0000
  H   H6        1.0  0.12520  0.09490  0.11790  1.0000
  N   N5        1.0  0.18271  0.12880  0.23250  1.0000
  N   N6        1.0  0.18511  0.17833  0.28550  1.0000
  C   C12       1.0  0.14029  0.20369  0.24820  1.0000
  H   H7        1.0  0.13210  0.23670  0.26980  1.0000
  C   C13       1.0  0.94850  0.11020  0.99040  1.0000
  C   C14       1.0  0.98290  0.15230  0.02750  1.0000
  C   C15       1.0  0.96710  0.20200  0.02210  1.0000
  H   H8        1.0  0.93460  0.20980  0.99430  1.0000
  C   C16       1.0  1.00000  0.23960  0.05860  1.0000
  C   C17       1.0  0.98560  0.29430  0.05360  1.0000
  C   C18       1.0  0.04730  0.22810  0.10770  1.0000
  H   H9        1.0  0.06880  0.25370  0.13510  1.0000
  C   C19       1.0  0.06270  0.17880  0.11610  1.0000
  C   C20       1.0  0.03110  0.14000  0.07180  1.0000
  H   H10       1.0  0.04200  0.10690  0.07190  1.0000
  O   O5        1.0  0.90243  0.11796  0.97340  1.0000
  O   O6        1.0  0.96594  0.06647  0.98050  1.0000
  O   O7        1.0  0.01920  0.32680  0.07650  1.0000
  O   O8        1.0  0.94292  0.30749  0.02430  1.0000
  C   C21       1.0  0.58177  0.50088  0.71830  1.0000
  C   C22       1.0  0.56649  0.52107  0.58470  1.0000
  C   C23       1.0  0.58380  0.50020  0.46420  1.0000
  H   H11       1.0  0.60500  0.47240  0.46540  1.0000
  C   C24       1.0  0.56920  0.52150  0.34210  1.0000
  C   C25       1.0  0.58820  0.50230  0.21170  1.0000
  C   C26       1.0  0.53700  0.56110  0.33660  1.0000
  H   H12       1.0  0.52750  0.57460  0.25340  1.0000
  C   C27       1.0  0.51880  0.58070  0.45520  1.0000
  C   C28       1.0  0.53350  0.56140  0.57990  1.0000
  H   H13       1.0  0.52130  0.57540  0.65990  1.0000
  C   C29       1.0  0.47770  0.65330  0.34600  1.0000
  H   H14       1.0  0.49770  0.65460  0.26870  1.0000
  N   N7        1.0  0.43610  0.68450  0.37800  1.0000
  N   N8        1.0  0.41690  0.66920  0.50620  1.0000
  C   C30       1.0  0.44680  0.62859  0.55340  1.0000
  H   H15       1.0  0.44310  0.61100  0.63440  1.0000
  N   N9        1.0  0.48190  0.62080  0.45470  1.0000
  O   O9        1.0  0.56976  0.52476  0.82270  1.0000
  O   O10       1.0  0.60597  0.45991  0.72790  1.0000
  O   O11       1.0  0.60698  0.46100  0.20370  1.0000
  O   O12       1.0  0.58440  0.52680  0.10490  1.0000
  N   N10       1.0  0.38980  0.33015  0.17210  1.0000
  C   C31       1.0  0.36359  0.37643  0.16240  1.0000
  H   H16       1.0  0.37480  0.40510  0.11790  1.0000
  N   N11       1.0  0.31729  0.37120  0.23250  1.0000
  N   N12       1.0  0.31489  0.32167  0.28550  1.0000
  C   C32       1.0  0.35971  0.29631  0.24820  1.0000
  H   H17       1.0  0.36790  0.26330  0.26980  1.0000
  C   C33       1.0  0.55150  0.38980  0.99040  1.0000
  C   C34       1.0  0.51710  0.34770  0.02750  1.0000
  C   C35       1.0  0.53290  0.29800  0.02210  1.0000
  H   H18       1.0  0.56540  0.29020  0.99430  1.0000
  C   C36       1.0  0.50000  0.26040  0.05860  1.0000
  C   C37       1.0  0.51440  0.20570  0.05360  1.0000
  C   C38       1.0  0.45270  0.27190  0.10770  1.0000
  H   H19       1.0  0.43120  0.24630  0.13510  1.0000
  C   C39       1.0  0.43730  0.32120  0.11610  1.0000
  C   C40       1.0  0.46890  0.36000  0.07180  1.0000
  H   H20       1.0  0.45800  0.39310  0.07190  1.0000
  O   O13       1.0  0.59757  0.38204  0.97340  1.0000
  O   O14       1.0  0.53406  0.43353  0.98050  1.0000
  O   O15       1.0  0.48080  0.17320  0.07650  1.0000
  O   O16       1.0  0.55708  0.19251  0.02430  1.0000
  O   O17       1.0  0.45991  0.89403  0.72790  1.0000
  O   O18       1.0  0.46100  0.89302  0.20370  1.0000
  O   O19       1.0  0.52680  0.91560  0.10490  1.0000
  C   C41       1.0  0.50088  0.91823  0.71830  1.0000
  C   C42       1.0  0.52107  0.93351  0.58470  1.0000
  C   C43       1.0  0.50020  0.91620  0.46420  1.0000
  H   H21       1.0  0.47240  0.89500  0.46540  1.0000
  C   C44       1.0  0.52150  0.93080  0.34210  1.0000
  C   C45       1.0  0.50230  0.91180  0.21170  1.0000
  C   C46       1.0  0.56110  0.96300  0.33660  1.0000
  H   H22       1.0  0.57460  0.97250  0.25340  1.0000
  C   C47       1.0  0.58070  0.98120  0.45520  1.0000
  C   C48       1.0  0.56140  0.96650  0.57990  1.0000
  H   H23       1.0  0.57540  0.97870  0.65990  1.0000
  C   C49       1.0  0.65330  0.02230  0.34600  1.0000
  H   H24       1.0  0.65460  0.00230  0.26870  1.0000
  N   N13       1.0  0.68450  0.06390  0.37800  1.0000
  N   N14       1.0  0.66920  0.08310  0.50620  1.0000
  C   C50       1.0  0.62859  0.05320  0.55340  1.0000
  H   H25       1.0  0.61100  0.05690  0.63440  1.0000
  N   N15       1.0  0.62080  0.01810  0.45470  1.0000
  O   O20       1.0  0.52476  0.93024  0.82270  1.0000
  O   O21       1.0  0.38204  0.90243  0.97340  1.0000
  O   O22       1.0  0.43353  0.96594  0.98050  1.0000
  O   O23       1.0  0.17320  0.01920  0.07650  1.0000
  O   O24       1.0  0.19251  0.94292  0.02430  1.0000
  N   N16       1.0  0.33015  0.11020  0.17210  1.0000
  C   C51       1.0  0.37643  0.13641  0.16240  1.0000
  H   H26       1.0  0.40510  0.12520  0.11790  1.0000
  N   N17       1.0  0.37120  0.18271  0.23250  1.0000
  N   N18       1.0  0.32167  0.18511  0.28550  1.0000
  C   C52       1.0  0.29631  0.14029  0.24820  1.0000
  H   H27       1.0  0.26330  0.13210  0.26980  1.0000
  C   C53       1.0  0.38980  0.94850  0.99040  1.0000
  C   C54       1.0  0.34770  0.98290  0.02750  1.0000
  C   C55       1.0  0.29800  0.96710  0.02210  1.0000
  H   H28       1.0  0.29020  0.93460  0.99430  1.0000
  C   C56       1.0  0.26040  1.00000  0.05860  1.0000
  C   C57       1.0  0.20570  0.98560  0.05360  1.0000
  C   C58       1.0  0.27190  0.04730  0.10770  1.0000
  H   H29       1.0  0.24630  0.06880  0.13510  1.0000
  C   C59       1.0  0.32120  0.06270  0.11610  1.0000
  C   C60       1.0  0.36000  0.03110  0.07180  1.0000
  H   H30       1.0  0.39310  0.04200  0.07190  1.0000
  C   C61       1.0  0.99912  0.58177  0.71830  1.0000
  C   C62       1.0  0.97893  0.56649  0.58470  1.0000
  C   C63       1.0  0.99980  0.58380  0.46420  1.0000
  H   H31       1.0  0.02760  0.60500  0.46540  1.0000
  C   C64       1.0  0.97850  0.56920  0.34210  1.0000
  C   C65       1.0  0.99770  0.58820  0.21170  1.0000
  C   C66       1.0  0.93890  0.53700  0.33660  1.0000
  H   H32       1.0  0.92540  0.52750  0.25340  1.0000
  C   C67       1.0  0.91930  0.51880  0.45520  1.0000
  C   C68       1.0  0.93860  0.53350  0.57990  1.0000
  H   H33       1.0  0.92460  0.52130  0.65990  1.0000
  C   C69       1.0  0.84670  0.47770  0.34600  1.0000
  H   H34       1.0  0.84540  0.49770  0.26870  1.0000
  N   N19       1.0  0.81550  0.43610  0.37800  1.0000
  N   N20       1.0  0.83080  0.41690  0.50620  1.0000
  C   C70       1.0  0.87141  0.44680  0.55340  1.0000
  H   H35       1.0  0.88900  0.44310  0.63440  1.0000
  N   N21       1.0  0.87920  0.48190  0.45470  1.0000
  O   O25       1.0  0.97524  0.56976  0.82270  1.0000
  O   O26       1.0  0.04009  0.60597  0.72790  1.0000
  O   O27       1.0  0.03900  0.60698  0.20370  1.0000
  O   O28       1.0  0.97320  0.58440  0.10490  1.0000
  N   N22       1.0  0.16985  0.38980  0.17210  1.0000
  C   C71       1.0  0.12357  0.36359  0.16240  1.0000
  H   H36       1.0  0.09490  0.37480  0.11790  1.0000
  N   N23       1.0  0.12880  0.31729  0.23250  1.0000
  N   N24       1.0  0.17833  0.31489  0.28550  1.0000
  C   C72       1.0  0.20369  0.35971  0.24820  1.0000
  H   H37       1.0  0.23670  0.36790  0.26980  1.0000
  C   C73       1.0  0.11020  0.55150  0.99040  1.0000
  C   C74       1.0  0.15230  0.51710  0.02750  1.0000
  C   C75       1.0  0.20200  0.53290  0.02210  1.0000
  H   H38       1.0  0.20980  0.56540  0.99430  1.0000
  C   C76       1.0  0.23960  0.50000  0.05860  1.0000
  C   C77       1.0  0.29430  0.51440  0.05360  1.0000
  C   C78       1.0  0.22810  0.45270  0.10770  1.0000
  H   H39       1.0  0.25370  0.43120  0.13510  1.0000
  C   C79       1.0  0.17880  0.43730  0.11610  1.0000
  C   C80       1.0  0.14000  0.46890  0.07180  1.0000
  H   H40       1.0  0.10690  0.45800  0.07190  1.0000
  O   O29       1.0  0.11796  0.59757  0.97340  1.0000
  O   O30       1.0  0.06647  0.53406  0.98050  1.0000
  O   O31       1.0  0.32680  0.48080  0.07650  1.0000
  O   O32       1.0  0.30749  0.55708  0.02430  1.0000
  C   C81       1.0  0.08177  0.00088  0.28170  1.0000
  C   C82       1.0  0.06649  0.02107  0.41530  1.0000
  C   C83       1.0  0.08380  0.00020  0.53580  1.0000
  H   H41       1.0  0.10500  0.97240  0.53460  1.0000
  C   C84       1.0  0.06920  0.02150  0.65790  1.0000
  C   C85       1.0  0.08820  0.00230  0.78830  1.0000
  C   C86       1.0  0.03700  0.06110  0.66340  1.0000
  H   H42       1.0  0.02750  0.07460  0.74660  1.0000
  C   C87       1.0  0.01880  0.08070  0.54480  1.0000
  C   C88       1.0  0.03350  0.06140  0.42010  1.0000
  H   H43       1.0  0.02130  0.07540  0.34010  1.0000
  C   C89       1.0  0.97770  0.15330  0.65400  1.0000
  H   H44       1.0  0.99770  0.15460  0.73130  1.0000
  N   N25       1.0  0.93610  0.18450  0.62200  1.0000
  N   N26       1.0  0.91690  0.16920  0.49380  1.0000
  C   C90       1.0  0.94680  0.12859  0.44660  1.0000
  H   H45       1.0  0.94310  0.11100  0.36560  1.0000
  N   N27       1.0  0.98190  0.12080  0.54530  1.0000
  O   O33       1.0  0.06976  0.02476  0.17730  1.0000
  O   O34       1.0  0.10597  0.95991  0.27210  1.0000
  O   O35       1.0  0.10698  0.96100  0.79630  1.0000
  O   O36       1.0  0.08440  0.02680  0.89510  1.0000
  N   N28       1.0  0.88980  0.83015  0.82790  1.0000
  C   C91       1.0  0.86359  0.87643  0.83760  1.0000
  H   H46       1.0  0.87480  0.90510  0.88210  1.0000
  N   N29       1.0  0.81729  0.87120  0.76750  1.0000
  N   N30       1.0  0.81489  0.82167  0.71450  1.0000
  C   C92       1.0  0.85971  0.79631  0.75180  1.0000
  H   H47       1.0  0.86790  0.76330  0.73020  1.0000
  C   C93       1.0  0.05150  0.88980  0.00960  1.0000
  C   C94       1.0  0.01710  0.84770  0.97250  1.0000
  C   C95       1.0  0.03290  0.79800  0.97790  1.0000
  H   H48       1.0  0.06540  0.79020  0.00570  1.0000
  C   C96       1.0  0.00000  0.76040  0.94140  1.0000
  C   C97       1.0  0.01440  0.70570  0.94640  1.0000
  C   C98       1.0  0.95270  0.77190  0.89230  1.0000
  H   H49       1.0  0.93120  0.74630  0.86490  1.0000
  C   C99       1.0  0.93730  0.82120  0.88390  1.0000
  C   C100      1.0  0.96890  0.86000  0.92820  1.0000
  H   H50       1.0  0.95800  0.89310  0.92810  1.0000
  O   O37       1.0  0.09757  0.88204  0.02660  1.0000
  O   O38       1.0  0.03406  0.93353  0.01950  1.0000
  O   O39       1.0  0.98080  0.67320  0.92350  1.0000
  O   O40       1.0  0.05708  0.69251  0.97570  1.0000
  N   N31       1.0  0.51810  0.37920  0.54530  1.0000
  O   O41       1.0  0.43024  0.47524  0.17730  1.0000
  O   O42       1.0  0.39403  0.54009  0.27210  1.0000
  O   O43       1.0  0.39302  0.53900  0.79630  1.0000
  O   O44       1.0  0.41560  0.47320  0.89510  1.0000
  C   C101      1.0  0.41823  0.49912  0.28170  1.0000
  C   C102      1.0  0.43351  0.47893  0.41530  1.0000
  C   C103      1.0  0.41620  0.49980  0.53580  1.0000
  H   H51       1.0  0.39500  0.52760  0.53460  1.0000
  C   C104      1.0  0.43080  0.47850  0.65790  1.0000
  C   C105      1.0  0.41180  0.49770  0.78830  1.0000
  C   C106      1.0  0.46300  0.43890  0.66340  1.0000
  H   H52       1.0  0.47250  0.42540  0.74660  1.0000
  C   C107      1.0  0.48120  0.41930  0.54480  1.0000
  C   C108      1.0  0.46650  0.43860  0.42010  1.0000
  H   H53       1.0  0.47870  0.42460  0.34010  1.0000
  C   C109      1.0  0.52230  0.34670  0.65400  1.0000
  H   H54       1.0  0.50230  0.34540  0.73130  1.0000
  N   N32       1.0  0.56390  0.31550  0.62200  1.0000
  N   N33       1.0  0.58310  0.33080  0.49380  1.0000
  C   C110      1.0  0.55320  0.37141  0.44660  1.0000
  H   H55       1.0  0.55690  0.38900  0.36560  1.0000
  H   H56       1.0  0.56880  0.75370  0.86490  1.0000
  C   C111      1.0  0.56270  0.67880  0.88390  1.0000
  C   C112      1.0  0.53110  0.64000  0.92820  1.0000
  H   H57       1.0  0.54200  0.60690  0.92810  1.0000
  O   O45       1.0  0.40243  0.61796  0.02660  1.0000
  O   O46       1.0  0.46594  0.56647  0.01950  1.0000
  O   O47       1.0  0.51920  0.82680  0.92350  1.0000
  O   O48       1.0  0.44292  0.80749  0.97570  1.0000
  N   N34       1.0  0.61020  0.66985  0.82790  1.0000
  C   C113      1.0  0.63641  0.62357  0.83760  1.0000
  H   H58       1.0  0.62520  0.59490  0.88210  1.0000
  N   N35       1.0  0.68271  0.62880  0.76750  1.0000
  N   N36       1.0  0.68511  0.67833  0.71450  1.0000
  C   C114      1.0  0.64029  0.70369  0.75180  1.0000
  H   H59       1.0  0.63210  0.73670  0.73020  1.0000
  C   C115      1.0  0.44850  0.61020  0.00960  1.0000
  C   C116      1.0  0.48290  0.65230  0.97250  1.0000
  C   C117      1.0  0.46710  0.70200  0.97790  1.0000
  H   H60       1.0  0.43460  0.70980  0.00570  1.0000
  C   C118      1.0  0.50000  0.73960  0.94140  1.0000
  C   C119      1.0  0.48560  0.79430  0.94640  1.0000
  C   C120      1.0  0.54730  0.72810  0.89230  1.0000
  C   C121      1.0  0.49912  0.08177  0.28170  1.0000
  C   C122      1.0  0.47893  0.06649  0.41530  1.0000
  C   C123      1.0  0.49980  0.08380  0.53580  1.0000
  H   H61       1.0  0.52760  0.10500  0.53460  1.0000
  C   C124      1.0  0.47850  0.06920  0.65790  1.0000
  C   C125      1.0  0.49770  0.08820  0.78830  1.0000
  C   C126      1.0  0.43890  0.03700  0.66340  1.0000
  H   H62       1.0  0.42540  0.02750  0.74660  1.0000
  C   C127      1.0  0.41930  0.01880  0.54480  1.0000
  C   C128      1.0  0.43860  0.03350  0.42010  1.0000
  H   H63       1.0  0.42460  0.02130  0.34010  1.0000
  C   C129      1.0  0.34670  0.97770  0.65400  1.0000
  H   H64       1.0  0.34540  0.99770  0.73130  1.0000
  N   N37       1.0  0.31550  0.93610  0.62200  1.0000
  N   N38       1.0  0.33080  0.91690  0.49380  1.0000
  C   C130      1.0  0.37141  0.94680  0.44660  1.0000
  H   H65       1.0  0.38900  0.94310  0.36560  1.0000
  N   N39       1.0  0.37920  0.98190  0.54530  1.0000
  O   O49       1.0  0.47524  0.06976  0.17730  1.0000
  O   O50       1.0  0.54009  0.10597  0.27210  1.0000
  O   O51       1.0  0.53900  0.10698  0.79630  1.0000
  O   O52       1.0  0.47320  0.08440  0.89510  1.0000
  N   N40       1.0  0.66985  0.88980  0.82790  1.0000
  C   C131      1.0  0.62357  0.86359  0.83760  1.0000
  H   H66       1.0  0.59490  0.87480  0.88210  1.0000
  N   N41       1.0  0.62880  0.81729  0.76750  1.0000
  N   N42       1.0  0.67833  0.81489  0.71450  1.0000
  C   C132      1.0  0.70369  0.85971  0.75180  1.0000
  H   H67       1.0  0.73670  0.86790  0.73020  1.0000
  C   C133      1.0  0.61020  0.05150  0.00960  1.0000
  C   C134      1.0  0.65230  0.01710  0.97250  1.0000
  C   C135      1.0  0.70200  0.03290  0.97790  1.0000
  H   H68       1.0  0.70980  0.06540  0.00570  1.0000
  C   C136      1.0  0.73960  0.00000  0.94140  1.0000
  C   C137      1.0  0.79430  0.01440  0.94640  1.0000
  C   C138      1.0  0.72810  0.95270  0.89230  1.0000
  H   H69       1.0  0.75370  0.93120  0.86490  1.0000
  C   C139      1.0  0.67880  0.93730  0.88390  1.0000
  C   C140      1.0  0.64000  0.96890  0.92820  1.0000
  H   H70       1.0  0.60690  0.95800  0.92810  1.0000
  O   O53       1.0  0.61796  0.09757  0.02660  1.0000
  O   O54       1.0  0.56647  0.03406  0.01950  1.0000
  O   O55       1.0  0.82680  0.98080  0.92350  1.0000
  O   O56       1.0  0.80749  0.05708  0.97570  1.0000
  C   C141      1.0  0.00088  0.41823  0.28170  1.0000
  C   C142      1.0  0.02107  0.43351  0.41530  1.0000
  C   C143      1.0  0.00020  0.41620  0.53580  1.0000
  H   H71       1.0  0.97240  0.39500  0.53460  1.0000
  C   C144      1.0  0.02150  0.43080  0.65790  1.0000
  C   C145      1.0  0.00230  0.41180  0.78830  1.0000
  C   C146      1.0  0.06110  0.46300  0.66340  1.0000
  H   H72       1.0  0.07460  0.47250  0.74660  1.0000
  C   C147      1.0  0.08070  0.48120  0.54480  1.0000
  C   C148      1.0  0.06140  0.46650  0.42010  1.0000
  H   H73       1.0  0.07540  0.47870  0.34010  1.0000
  C   C149      1.0  0.15330  0.52230  0.65400  1.0000
  H   H74       1.0  0.15460  0.50230  0.73130  1.0000
  N   N43       1.0  0.18450  0.56390  0.62200  1.0000
  N   N44       1.0  0.16920  0.58310  0.49380  1.0000
  C   C150      1.0  0.12859  0.55320  0.44660  1.0000
  H   H75       1.0  0.11100  0.55690  0.36560  1.0000
  N   N45       1.0  0.12080  0.51810  0.54530  1.0000
  O   O57       1.0  0.02476  0.43024  0.17730  1.0000
  O   O58       1.0  0.95991  0.39403  0.27210  1.0000
  O   O59       1.0  0.96100  0.39302  0.79630  1.0000
  O   O60       1.0  0.02680  0.41560  0.89510  1.0000
  N   N46       1.0  0.83015  0.61020  0.82790  1.0000
  C   C151      1.0  0.87643  0.63641  0.83760  1.0000
  H   H76       1.0  0.90510  0.62520  0.88210  1.0000
  N   N47       1.0  0.87120  0.68271  0.76750  1.0000
  N   N48       1.0  0.82167  0.68511  0.71450  1.0000
  C   C152      1.0  0.79631  0.64029  0.75180  1.0000
  H   H77       1.0  0.76330  0.63210  0.73020  1.0000
  C   C153      1.0  0.88980  0.44850  0.00960  1.0000
  C   C154      1.0  0.84770  0.48290  0.97250  1.0000
  C   C155      1.0  0.79800  0.46710  0.97790  1.0000
  H   H78       1.0  0.79020  0.43460  0.00570  1.0000
  C   C156      1.0  0.76040  0.50000  0.94140  1.0000
  C   C157      1.0  0.70570  0.48560  0.94640  1.0000
  C   C158      1.0  0.77190  0.54730  0.89230  1.0000
  H   H79       1.0  0.74630  0.56880  0.86490  1.0000
  C   C159      1.0  0.82120  0.56270  0.88390  1.0000
  C   C160      1.0  0.86000  0.53110  0.92820  1.0000
  H   H80       1.0  0.89310  0.54200  0.92810  1.0000
  O   O61       1.0  0.88204  0.40243  0.02660  1.0000
  O   O62       1.0  0.93353  0.46594  0.01950  1.0000
  O   O63       1.0  0.67320  0.51920  0.92350  1.0000
  O   O64       1.0  0.69251  0.44292  0.97570  1.0000
  In  In1       1.0  0.89096  0.03246  0.95914  1.0000
  In  In2       1.0  0.39096  0.53246  0.04086  1.0000
  In  In3       1.0  0.03246  0.60904  0.95914  1.0000
  In  In4       1.0  0.60904  0.46754  0.95914  1.0000
  In  In5       1.0  0.53246  0.10904  0.04086  1.0000
  In  In6       1.0  0.10904  0.96754  0.04086  1.0000
  In  In7       1.0  0.46754  0.89096  0.95914  1.0000
  In  In8       1.0  0.96754  0.39096  0.04086  1.0000
