data_image0
_chemical_formula_structural       C3HC3HC2HCHN2CHNO4NCHN2CHC3HC3HC2HO4C3HC3HC2HCHN2CHNO4NCHN2CHC3HC3HC2HO7C3HC3HC2HCHN2CHNO5NCHN2CHC3HC3HC2HC3HC3HC2HCHN2CHNO4NCHN2CHC3HC3HC2HO4C3HC3HC2HCHN2CHNO4NCHN2CHC3HC3HC2HO4NO4C3HC3HC2HCHN2CH2C2HO4NCHN2CHC3HC6HC3HC2HCHN2CHNO4NCHN2CHC3HC3HC2HO4C3HC3HC2HCHN2CHNO4NCHN2CHC3HC3HC2HO4Cd8
_chemical_formula_sum              "C160 H80 N48 O64 Cd8"
_cell_length_a       27.429
_cell_length_b       27.429
_cell_length_c       9.897
_cell_angle_alpha    90
_cell_angle_beta     90
_cell_angle_gamma    90

_space_group_name_H-M_alt    "P 1"
_space_group_IT_number       1

loop_
  _space_group_symop_operation_xyz
  'x, y, z'

loop_
  _atom_site_type_symbol
  _atom_site_label
  _atom_site_symmetry_multiplicity
  _atom_site_fract_x
  _atom_site_fract_y
  _atom_site_fract_z
  _atom_site_occupancy
  C   C1        1.0  0.49820  0.41580  0.72690  1.0000
  C   C2        1.0  0.47730  0.43420  0.85880  1.0000
  C   C3        1.0  0.49500  0.42000  0.98340  1.0000
  H   H1        1.0  0.52040  0.39750  0.98720  1.0000
  C   C4        1.0  0.47610  0.43830  0.10240  1.0000
  C   C5        1.0  0.49710  0.42500  0.23510  1.0000
  C   C6        1.0  0.43570  0.46900  0.09450  1.0000
  H   H2        1.0  0.42100  0.48010  0.17340  1.0000
  C   C7        1.0  0.41750  0.48290  0.97250  1.0000
  C   C8        1.0  0.43520  0.46540  0.85440  1.0000
  H   H3        1.0  0.42050  0.47340  0.77260  1.0000
  C   C9        1.0  0.37390  0.55430  0.87250  1.0000
  H   H4        1.0  0.39740  0.56250  0.80870  1.0000
  N   N1        1.0  0.32851  0.57830  0.89120  1.0000
  N   N2        1.0  0.30350  0.55480  0.99870  1.0000
  C   C10       1.0  0.33350  0.51620  0.04640  1.0000
  H   H5        1.0  0.32580  0.49500  0.11660  1.0000
  N   N3        1.0  0.37730  0.51550  0.96810  1.0000
  O   O1        1.0  0.48046  0.43174  0.62280  1.0000
  O   O2        1.0  0.53279  0.38510  0.73430  1.0000
  O   O3        1.0  0.53142  0.39348  0.23890  1.0000
  O   O4        1.0  0.47755  0.44110  0.34020  1.0000
  N   N4        1.0  0.66760  0.61280  0.63710  1.0000
  C   C11       1.0  0.62280  0.63850  0.62830  1.0000
  H   H6        1.0  0.59400  0.62670  0.59110  1.0000
  N   N5        1.0  0.62960  0.68530  0.68640  1.0000
  N   N6        1.0  0.67870  0.68860  0.73100  1.0000
  C   C12       1.0  0.70220  0.64380  0.70060  1.0000
  H   H7        1.0  0.73450  0.63610  0.71900  1.0000
  C   C13       1.0  0.61199  0.44840  0.49920  1.0000
  C   C14       1.0  0.65340  0.48350  0.52180  1.0000
  C   C15       1.0  0.70140  0.46750  0.51880  1.0000
  H   H8        1.0  0.70840  0.43490  0.50170  1.0000
  C   C16       1.0  0.73970  0.50100  0.54180  1.0000
  C   C17       1.0  0.79056  0.48670  0.52870  1.0000
  C   C18       1.0  0.72830  0.54930  0.57650  1.0000
  H   H9        1.0  0.75260  0.57190  0.59500  1.0000
  C   C19       1.0  0.68080  0.56190  0.58220  1.0000
  C   C20       1.0  0.64240  0.53270  0.55700  1.0000
  H   H10       1.0  0.61050  0.54400  0.56230  1.0000
  O   O5        1.0  0.61954  0.40325  0.49890  1.0000
  O   O6        1.0  0.57091  0.46740  0.47960  1.0000
  O   O7        1.0  0.80214  0.44212  0.51800  1.0000
  O   O8        1.0  0.82323  0.52089  0.53310  1.0000
  C   C21       1.0  0.00180  0.08420  0.72690  1.0000
  C   C22       1.0  0.02270  0.06580  0.85880  1.0000
  C   C23       1.0  0.00500  0.08000  0.98340  1.0000
  H   H11       1.0  0.97960  0.10250  0.98720  1.0000
  C   C24       1.0  0.02390  0.06170  0.10240  1.0000
  C   C25       1.0  0.00290  0.07500  0.23510  1.0000
  C   C26       1.0  0.06430  0.03100  0.09450  1.0000
  H   H12       1.0  0.07900  0.01990  0.17340  1.0000
  C   C27       1.0  0.08250  0.01710  0.97250  1.0000
  C   C28       1.0  0.06480  0.03460  0.85440  1.0000
  H   H13       1.0  0.07950  0.02660  0.77260  1.0000
  C   C29       1.0  0.12610  0.94570  0.87250  1.0000
  H   H14       1.0  0.10260  0.93750  0.80870  1.0000
  N   N7        1.0  0.17149  0.92170  0.89120  1.0000
  N   N8        1.0  0.19650  0.94520  0.99870  1.0000
  C   C30       1.0  0.16650  0.98380  0.04640  1.0000
  H   H15       1.0  0.17420  0.00500  0.11660  1.0000
  N   N9        1.0  0.12270  0.98450  0.96810  1.0000
  O   O9        1.0  0.01954  0.06826  0.62280  1.0000
  O   O10       1.0  0.96721  0.11490  0.73430  1.0000
  O   O11       1.0  0.96858  0.10652  0.23890  1.0000
  O   O12       1.0  0.02245  0.05890  0.34020  1.0000
  N   N10       1.0  0.83240  0.88720  0.63710  1.0000
  C   C31       1.0  0.87720  0.86150  0.62830  1.0000
  H   H16       1.0  0.90600  0.87330  0.59110  1.0000
  N   N11       1.0  0.87040  0.81470  0.68640  1.0000
  N   N12       1.0  0.82130  0.81140  0.73100  1.0000
  C   C32       1.0  0.79780  0.85620  0.70060  1.0000
  H   H17       1.0  0.76550  0.86390  0.71900  1.0000
  C   C33       1.0  0.88801  0.05160  0.49920  1.0000
  C   C34       1.0  0.84660  0.01650  0.52180  1.0000
  C   C35       1.0  0.79860  0.03250  0.51880  1.0000
  H   H18       1.0  0.79160  0.06510  0.50170  1.0000
  C   C36       1.0  0.76030  0.99900  0.54180  1.0000
  C   C37       1.0  0.70944  0.01330  0.52870  1.0000
  C   C38       1.0  0.77170  0.95070  0.57650  1.0000
  H   H19       1.0  0.74740  0.92810  0.59500  1.0000
  C   C39       1.0  0.81920  0.93810  0.58220  1.0000
  C   C40       1.0  0.85760  0.96730  0.55700  1.0000
  H   H20       1.0  0.88950  0.95600  0.56230  1.0000
  O   O13       1.0  0.88046  0.09675  0.49890  1.0000
  O   O14       1.0  0.92909  0.03260  0.47960  1.0000
  O   O15       1.0  0.69786  0.05788  0.51800  1.0000
  O   O16       1.0  0.67677  0.97911  0.53310  1.0000
  O   O17       1.0  0.11490  0.53279  0.73430  1.0000
  O   O18       1.0  0.10652  0.53142  0.23890  1.0000
  O   O19       1.0  0.05890  0.47755  0.34020  1.0000
  C   C41       1.0  0.08420  0.49820  0.72690  1.0000
  C   C42       1.0  0.06580  0.47730  0.85880  1.0000
  C   C43       1.0  0.08000  0.49500  0.98340  1.0000
  H   H21       1.0  0.10250  0.52040  0.98720  1.0000
  C   C44       1.0  0.06170  0.47610  0.10240  1.0000
  C   C45       1.0  0.07500  0.49710  0.23510  1.0000
  C   C46       1.0  0.03100  0.43570  0.09450  1.0000
  H   H22       1.0  0.01990  0.42100  0.17340  1.0000
  C   C47       1.0  0.01710  0.41750  0.97250  1.0000
  C   C48       1.0  0.03460  0.43520  0.85440  1.0000
  H   H23       1.0  0.02660  0.42050  0.77260  1.0000
  C   C49       1.0  0.94570  0.37390  0.87250  1.0000
  H   H24       1.0  0.93750  0.39740  0.80870  1.0000
  N   N13       1.0  0.92170  0.32851  0.89120  1.0000
  N   N14       1.0  0.94520  0.30350  0.99870  1.0000
  C   C50       1.0  0.98380  0.33350  0.04640  1.0000
  H   H25       1.0  0.00500  0.32580  0.11660  1.0000
  N   N15       1.0  0.98450  0.37730  0.96810  1.0000
  O   O20       1.0  0.06826  0.48046  0.62280  1.0000
  O   O21       1.0  0.09675  0.61954  0.49890  1.0000
  O   O22       1.0  0.03260  0.57091  0.47960  1.0000
  O   O23       1.0  0.05788  0.80214  0.51800  1.0000
  O   O24       1.0  0.97911  0.82323  0.53310  1.0000
  N   N16       1.0  0.88720  0.66760  0.63710  1.0000
  C   C51       1.0  0.86150  0.62280  0.62830  1.0000
  H   H26       1.0  0.87330  0.59400  0.59110  1.0000
  N   N17       1.0  0.81470  0.62960  0.68640  1.0000
  N   N18       1.0  0.81140  0.67870  0.73100  1.0000
  C   C52       1.0  0.85620  0.70220  0.70060  1.0000
  H   H27       1.0  0.86390  0.73450  0.71900  1.0000
  C   C53       1.0  0.05160  0.61199  0.49920  1.0000
  C   C54       1.0  0.01650  0.65340  0.52180  1.0000
  C   C55       1.0  0.03250  0.70140  0.51880  1.0000
  H   H28       1.0  0.06510  0.70840  0.50170  1.0000
  C   C56       1.0  0.99900  0.73970  0.54180  1.0000
  C   C57       1.0  0.01330  0.79056  0.52870  1.0000
  C   C58       1.0  0.95070  0.72830  0.57650  1.0000
  H   H29       1.0  0.92810  0.75260  0.59500  1.0000
  C   C59       1.0  0.93810  0.68080  0.58220  1.0000
  C   C60       1.0  0.96730  0.64240  0.55700  1.0000
  H   H30       1.0  0.95600  0.61050  0.56230  1.0000
  C   C61       1.0  0.41580  0.00180  0.72690  1.0000
  C   C62       1.0  0.43420  0.02270  0.85880  1.0000
  C   C63       1.0  0.42000  0.00500  0.98340  1.0000
  H   H31       1.0  0.39750  0.97960  0.98720  1.0000
  C   C64       1.0  0.43830  0.02390  0.10240  1.0000
  C   C65       1.0  0.42500  0.00290  0.23510  1.0000
  C   C66       1.0  0.46900  0.06430  0.09450  1.0000
  H   H32       1.0  0.48010  0.07900  0.17340  1.0000
  C   C67       1.0  0.48290  0.08250  0.97250  1.0000
  C   C68       1.0  0.46540  0.06480  0.85440  1.0000
  H   H33       1.0  0.47340  0.07950  0.77260  1.0000
  C   C69       1.0  0.55430  0.12610  0.87250  1.0000
  H   H34       1.0  0.56250  0.10260  0.80870  1.0000
  N   N19       1.0  0.57830  0.17149  0.89120  1.0000
  N   N20       1.0  0.55480  0.19650  0.99870  1.0000
  C   C70       1.0  0.51620  0.16650  0.04640  1.0000
  H   H35       1.0  0.49500  0.17420  0.11660  1.0000
  N   N21       1.0  0.51550  0.12270  0.96810  1.0000
  O   O25       1.0  0.43174  0.01954  0.62280  1.0000
  O   O26       1.0  0.38510  0.96721  0.73430  1.0000
  O   O27       1.0  0.39348  0.96858  0.23890  1.0000
  O   O28       1.0  0.44110  0.02245  0.34020  1.0000
  N   N22       1.0  0.61280  0.83240  0.63710  1.0000
  C   C71       1.0  0.63850  0.87720  0.62830  1.0000
  H   H36       1.0  0.62670  0.90600  0.59110  1.0000
  N   N23       1.0  0.68530  0.87040  0.68640  1.0000
  N   N24       1.0  0.68860  0.82130  0.73100  1.0000
  C   C72       1.0  0.64380  0.79780  0.70060  1.0000
  H   H37       1.0  0.63610  0.76550  0.71900  1.0000
  C   C73       1.0  0.44840  0.88801  0.49920  1.0000
  C   C74       1.0  0.48350  0.84660  0.52180  1.0000
  C   C75       1.0  0.46750  0.79860  0.51880  1.0000
  H   H38       1.0  0.43490  0.79160  0.50170  1.0000
  C   C76       1.0  0.50100  0.76030  0.54180  1.0000
  C   C77       1.0  0.48670  0.70944  0.52870  1.0000
  C   C78       1.0  0.54930  0.77170  0.57650  1.0000
  H   H39       1.0  0.57190  0.74740  0.59500  1.0000
  C   C79       1.0  0.56190  0.81920  0.58220  1.0000
  C   C80       1.0  0.53270  0.85760  0.55700  1.0000
  H   H40       1.0  0.54400  0.88950  0.56230  1.0000
  O   O29       1.0  0.40325  0.88046  0.49890  1.0000
  O   O30       1.0  0.46740  0.92909  0.47960  1.0000
  O   O31       1.0  0.44212  0.69786  0.51800  1.0000
  O   O32       1.0  0.52089  0.67677  0.53310  1.0000
  C   C81       1.0  0.50180  0.58420  0.27310  1.0000
  C   C82       1.0  0.52270  0.56580  0.14120  1.0000
  C   C83       1.0  0.50500  0.58000  0.01660  1.0000
  H   H41       1.0  0.47960  0.60250  0.01280  1.0000
  C   C84       1.0  0.52390  0.56170  0.89760  1.0000
  C   C85       1.0  0.50290  0.57500  0.76490  1.0000
  C   C86       1.0  0.56430  0.53100  0.90550  1.0000
  H   H42       1.0  0.57900  0.51990  0.82660  1.0000
  C   C87       1.0  0.58250  0.51710  0.02750  1.0000
  C   C88       1.0  0.56480  0.53460  0.14560  1.0000
  H   H43       1.0  0.57950  0.52660  0.22740  1.0000
  C   C89       1.0  0.62610  0.44570  0.12750  1.0000
  H   H44       1.0  0.60260  0.43750  0.19130  1.0000
  N   N25       1.0  0.67149  0.42170  0.10880  1.0000
  N   N26       1.0  0.69650  0.44520  0.00130  1.0000
  C   C90       1.0  0.66650  0.48380  0.95360  1.0000
  H   H45       1.0  0.67420  0.50500  0.88340  1.0000
  N   N27       1.0  0.62270  0.48450  0.03190  1.0000
  O   O33       1.0  0.51954  0.56826  0.37720  1.0000
  O   O34       1.0  0.46721  0.61490  0.26570  1.0000
  O   O35       1.0  0.46858  0.60652  0.76110  1.0000
  O   O36       1.0  0.52245  0.55890  0.65980  1.0000
  N   N28       1.0  0.33240  0.38720  0.36290  1.0000
  C   C91       1.0  0.37720  0.36150  0.37170  1.0000
  H   H46       1.0  0.40600  0.37330  0.40890  1.0000
  N   N29       1.0  0.37040  0.31470  0.31360  1.0000
  N   N30       1.0  0.32130  0.31140  0.26900  1.0000
  C   C92       1.0  0.29780  0.35620  0.29940  1.0000
  H   H47       1.0  0.26550  0.36390  0.28100  1.0000
  C   C93       1.0  0.38801  0.55160  0.50080  1.0000
  C   C94       1.0  0.34660  0.51650  0.47820  1.0000
  C   C95       1.0  0.29860  0.53250  0.48120  1.0000
  H   H48       1.0  0.29160  0.56510  0.49830  1.0000
  C   C96       1.0  0.26030  0.49900  0.45820  1.0000
  C   C97       1.0  0.20944  0.51330  0.47130  1.0000
  C   C98       1.0  0.27170  0.45070  0.42350  1.0000
  H   H49       1.0  0.24740  0.42810  0.40500  1.0000
  C   C99       1.0  0.31920  0.43810  0.41780  1.0000
  C   C100      1.0  0.35760  0.46730  0.44300  1.0000
  H   H50       1.0  0.38950  0.45600  0.43770  1.0000
  O   O37       1.0  0.38046  0.59675  0.50110  1.0000
  O   O38       1.0  0.42909  0.53260  0.52040  1.0000
  O   O39       1.0  0.19786  0.55788  0.48200  1.0000
  O   O40       1.0  0.17677  0.47911  0.46690  1.0000
  N   N31       1.0  0.87730  0.01550  0.03190  1.0000
  O   O41       1.0  0.98046  0.93174  0.37720  1.0000
  O   O42       1.0  0.03279  0.88510  0.26570  1.0000
  O   O43       1.0  0.03142  0.89348  0.76110  1.0000
  O   O44       1.0  0.97755  0.94110  0.65980  1.0000
  C   C101      1.0  0.99820  0.91580  0.27310  1.0000
  C   C102      1.0  0.97730  0.93420  0.14120  1.0000
  C   C103      1.0  0.99500  0.92000  0.01660  1.0000
  H   H51       1.0  0.02040  0.89750  0.01280  1.0000
  C   C104      1.0  0.97610  0.93830  0.89760  1.0000
  C   C105      1.0  0.99710  0.92500  0.76490  1.0000
  C   C106      1.0  0.93570  0.96900  0.90550  1.0000
  H   H52       1.0  0.92100  0.98010  0.82660  1.0000
  C   C107      1.0  0.91750  0.98290  0.02750  1.0000
  C   C108      1.0  0.93520  0.96540  0.14560  1.0000
  H   H53       1.0  0.92050  0.97340  0.22740  1.0000
  C   C109      1.0  0.87390  0.05430  0.12750  1.0000
  H   H54       1.0  0.89740  0.06250  0.19130  1.0000
  N   N32       1.0  0.82851  0.07830  0.10880  1.0000
  N   N33       1.0  0.80350  0.05480  0.00130  1.0000
  C   C110      1.0  0.83350  0.01620  0.95360  1.0000
  H   H55       1.0  0.82580  0.99500  0.88340  1.0000
  H   H56       1.0  0.25260  0.07190  0.40500  1.0000
  C   C111      1.0  0.18080  0.06190  0.41780  1.0000
  C   C112      1.0  0.14240  0.03270  0.44300  1.0000
  H   H57       1.0  0.11050  0.04400  0.43770  1.0000
  O   O45       1.0  0.11954  0.90325  0.50110  1.0000
  O   O46       1.0  0.07091  0.96740  0.52040  1.0000
  O   O47       1.0  0.30214  0.94212  0.48200  1.0000
  O   O48       1.0  0.32323  0.02089  0.46690  1.0000
  N   N34       1.0  0.16760  0.11280  0.36290  1.0000
  C   C113      1.0  0.12280  0.13850  0.37170  1.0000
  H   H58       1.0  0.09400  0.12670  0.40890  1.0000
  N   N35       1.0  0.12960  0.18530  0.31360  1.0000
  N   N36       1.0  0.17870  0.18860  0.26900  1.0000
  C   C114      1.0  0.20220  0.14380  0.29940  1.0000
  H   H59       1.0  0.23450  0.13610  0.28100  1.0000
  C   C115      1.0  0.11199  0.94840  0.50080  1.0000
  C   C116      1.0  0.15340  0.98350  0.47820  1.0000
  C   C117      1.0  0.20140  0.96750  0.48120  1.0000
  H   H60       1.0  0.20840  0.93490  0.49830  1.0000
  C   C118      1.0  0.23970  0.00100  0.45820  1.0000
  C   C119      1.0  0.29056  0.98670  0.47130  1.0000
  C   C120      1.0  0.22830  0.04930  0.42350  1.0000
  C   C121      1.0  0.91580  0.50180  0.27310  1.0000
  C   C122      1.0  0.93420  0.52270  0.14120  1.0000
  C   C123      1.0  0.92000  0.50500  0.01660  1.0000
  H   H61       1.0  0.89750  0.47960  0.01280  1.0000
  C   C124      1.0  0.93830  0.52390  0.89760  1.0000
  C   C125      1.0  0.92500  0.50290  0.76490  1.0000
  C   C126      1.0  0.96900  0.56430  0.90550  1.0000
  H   H62       1.0  0.98010  0.57900  0.82660  1.0000
  C   C127      1.0  0.98290  0.58250  0.02750  1.0000
  C   C128      1.0  0.96540  0.56480  0.14560  1.0000
  H   H63       1.0  0.97340  0.57950  0.22740  1.0000
  C   C129      1.0  0.05430  0.62610  0.12750  1.0000
  H   H64       1.0  0.06250  0.60260  0.19130  1.0000
  N   N37       1.0  0.07830  0.67149  0.10880  1.0000
  N   N38       1.0  0.05480  0.69650  0.00130  1.0000
  C   C130      1.0  0.01620  0.66650  0.95360  1.0000
  H   H65       1.0  0.99500  0.67420  0.88340  1.0000
  N   N39       1.0  0.01550  0.62270  0.03190  1.0000
  O   O49       1.0  0.93174  0.51954  0.37720  1.0000
  O   O50       1.0  0.88510  0.46721  0.26570  1.0000
  O   O51       1.0  0.89348  0.46858  0.76110  1.0000
  O   O52       1.0  0.94110  0.52245  0.65980  1.0000
  N   N40       1.0  0.11280  0.33240  0.36290  1.0000
  C   C131      1.0  0.13850  0.37720  0.37170  1.0000
  H   H66       1.0  0.12670  0.40600  0.40890  1.0000
  N   N41       1.0  0.18530  0.37040  0.31360  1.0000
  N   N42       1.0  0.18860  0.32130  0.26900  1.0000
  C   C132      1.0  0.14380  0.29780  0.29940  1.0000
  H   H67       1.0  0.13610  0.26550  0.28100  1.0000
  C   C133      1.0  0.94840  0.38801  0.50080  1.0000
  C   C134      1.0  0.98350  0.34660  0.47820  1.0000
  C   C135      1.0  0.96750  0.29860  0.48120  1.0000
  H   H68       1.0  0.93490  0.29160  0.49830  1.0000
  C   C136      1.0  0.00100  0.26030  0.45820  1.0000
  C   C137      1.0  0.98670  0.20944  0.47130  1.0000
  C   C138      1.0  0.04930  0.27170  0.42350  1.0000
  H   H69       1.0  0.07190  0.24740  0.40500  1.0000
  C   C139      1.0  0.06190  0.31920  0.41780  1.0000
  C   C140      1.0  0.03270  0.35760  0.44300  1.0000
  H   H70       1.0  0.04400  0.38950  0.43770  1.0000
  O   O53       1.0  0.90325  0.38046  0.50110  1.0000
  O   O54       1.0  0.96740  0.42909  0.52040  1.0000
  O   O55       1.0  0.94212  0.19786  0.48200  1.0000
  O   O56       1.0  0.02089  0.17677  0.46690  1.0000
  C   C141      1.0  0.58420  0.99820  0.27310  1.0000
  C   C142      1.0  0.56580  0.97730  0.14120  1.0000
  C   C143      1.0  0.58000  0.99500  0.01660  1.0000
  H   H71       1.0  0.60250  0.02040  0.01280  1.0000
  C   C144      1.0  0.56170  0.97610  0.89760  1.0000
  C   C145      1.0  0.57500  0.99710  0.76490  1.0000
  C   C146      1.0  0.53100  0.93570  0.90550  1.0000
  H   H72       1.0  0.51990  0.92100  0.82660  1.0000
  C   C147      1.0  0.51710  0.91750  0.02750  1.0000
  C   C148      1.0  0.53460  0.93520  0.14560  1.0000
  H   H73       1.0  0.52660  0.92050  0.22740  1.0000
  C   C149      1.0  0.44570  0.87390  0.12750  1.0000
  H   H74       1.0  0.43750  0.89740  0.19130  1.0000
  N   N43       1.0  0.42170  0.82851  0.10880  1.0000
  N   N44       1.0  0.44520  0.80350  0.00130  1.0000
  C   C150      1.0  0.48380  0.83350  0.95360  1.0000
  H   H75       1.0  0.50500  0.82580  0.88340  1.0000
  N   N45       1.0  0.48450  0.87730  0.03190  1.0000
  O   O57       1.0  0.56826  0.98046  0.37720  1.0000
  O   O58       1.0  0.61490  0.03279  0.26570  1.0000
  O   O59       1.0  0.60652  0.03142  0.76110  1.0000
  O   O60       1.0  0.55890  0.97755  0.65980  1.0000
  N   N46       1.0  0.38720  0.16760  0.36290  1.0000
  C   C151      1.0  0.36150  0.12280  0.37170  1.0000
  H   H76       1.0  0.37330  0.09400  0.40890  1.0000
  N   N47       1.0  0.31470  0.12960  0.31360  1.0000
  N   N48       1.0  0.31140  0.17870  0.26900  1.0000
  C   C152      1.0  0.35620  0.20220  0.29940  1.0000
  H   H77       1.0  0.36390  0.23450  0.28100  1.0000
  C   C153      1.0  0.55160  0.11199  0.50080  1.0000
  C   C154      1.0  0.51650  0.15340  0.47820  1.0000
  C   C155      1.0  0.53250  0.20140  0.48120  1.0000
  H   H78       1.0  0.56510  0.20840  0.49830  1.0000
  C   C156      1.0  0.49900  0.23970  0.45820  1.0000
  C   C157      1.0  0.51330  0.29056  0.47130  1.0000
  C   C158      1.0  0.45070  0.22830  0.42350  1.0000
  H   H79       1.0  0.42810  0.25260  0.40500  1.0000
  C   C159      1.0  0.43810  0.18080  0.41780  1.0000
  C   C160      1.0  0.46730  0.14240  0.44300  1.0000
  H   H80       1.0  0.45600  0.11050  0.43770  1.0000
  O   O61       1.0  0.59675  0.11954  0.50110  1.0000
  O   O62       1.0  0.53260  0.07091  0.52040  1.0000
  O   O63       1.0  0.55788  0.30214  0.48200  1.0000
  O   O64       1.0  0.47911  0.32323  0.46690  1.0000
  Cd  Cd1       1.0  0.53454  0.38643  0.48094  1.0000
  Cd  Cd2       1.0  0.03454  0.88643  0.51906  1.0000
  Cd  Cd3       1.0  0.38643  0.96546  0.48094  1.0000
  Cd  Cd4       1.0  0.96546  0.11357  0.48094  1.0000
  Cd  Cd5       1.0  0.88643  0.46546  0.51906  1.0000
  Cd  Cd6       1.0  0.46546  0.61357  0.51906  1.0000
  Cd  Cd7       1.0  0.11357  0.53454  0.48094  1.0000
  Cd  Cd8       1.0  0.61357  0.03454  0.51906  1.0000
