data_image0
_chemical_formula_structural       O8C5HC2HC3HC2HC2HCHC2HC3HCHC4HC4HCHCHCHC2HCHCHCHCHCHCHCHCHCHCHC3HC2HCHCHCHCHCHO8C6HCHCHCHC2HCHC3HCHC3HCHC7HCHC2HCHC2HCHCHCHCHCHC3HC2HC2HCHCHCHCHCHCHCHCHCHO8C5HC2HC3HC2HC2HCHC2HC3HCHC4HC4HCHCHCHC2HCHCHCHCHCHCHCHCHCHCHC3HC2HCHCHCHCHCHO8C6HCHCHCHC2HCHC3HCHC3HCHC7HCHC2HCHC2HCHCHCHCHCHC3HC2HC2HCHCHCHCHCHCHCHCHCHOHOH2O2HSr8
_chemical_formula_sum              "O36 C216 H132 Sr8"
_cell_length_a       17.1631
_cell_length_b       18.8529
_cell_length_c       20.6644
_cell_angle_alpha    65.67
_cell_angle_beta     87.741
_cell_angle_gamma    84.867

_space_group_name_H-M_alt    "P 1"
_space_group_IT_number       1

loop_
  _space_group_symop_operation_xyz
  'x, y, z'

loop_
  _atom_site_type_symbol
  _atom_site_label
  _atom_site_symmetry_multiplicity
  _atom_site_fract_x
  _atom_site_fract_y
  _atom_site_fract_z
  _atom_site_occupancy
  O   O1        1.0  0.30869  0.28246  0.92687  1.0000
  O   O2        1.0  0.40578  0.22193  0.07488  1.0000
  O   O3        1.0  0.29895  0.19542  0.88225  1.0000
  O   O4        1.0  0.40516  0.30043  0.13076  1.0000
  O   O5        1.0  0.90401  0.87237  0.24577  1.0000
  O   O6        1.0  0.79660  0.94030  0.02859  1.0000
  O   O7        1.0  0.79612  0.94375  0.25075  1.0000
  O   O8        1.0  0.84410  0.00680  0.08155  1.0000
  C   C1        1.0  0.48930  0.27670  0.66965  1.0000
  C   C2        1.0  0.57510  0.14090  0.50016  1.0000
  C   C3        1.0  0.61520  0.15300  0.55726  1.0000
  C   C4        1.0  0.44950  0.31520  0.71320  1.0000
  C   C5        1.0  0.45770  0.39370  0.69840  1.0000
  H   H1        1.0  0.48910  0.42270  0.66080  1.0000
  C   C6        1.0  0.69140  0.12590  0.57380  1.0000
  C   C7        1.0  0.82860  0.16250  0.69380  1.0000
  H   H2        1.0  0.87190  0.19070  0.68890  1.0000
  C   C8        1.0  0.56990  0.19750  0.59355  1.0000
  C   C9        1.0  0.83930  0.02010  0.45780  1.0000
  C   C10       1.0  0.79470  0.16390  0.63380  1.0000
  H   H3        1.0  0.81660  0.19140  0.58950  1.0000
  C   C11       1.0  0.88820  0.98130  0.41850  1.0000
  C   C12       1.0  0.41910  0.42860  0.73970  1.0000
  H   H4        1.0  0.42320  0.48130  0.72810  1.0000
  C   C13       1.0  0.42000  0.23450  0.12950  1.0000
  C   C14       1.0  0.40350  0.27290  0.77140  1.0000
  H   H5        1.0  0.39680  0.22090  0.78160  1.0000
  C   C15       1.0  0.47160  0.17680  0.25380  1.0000
  H   H6        1.0  0.46100  0.22560  0.25490  1.0000
  C   C16       1.0  0.74320  0.09230  0.53220  1.0000
  C   C17       1.0  0.85660  0.97030  0.36280  1.0000
  H   H7        1.0  0.80480  0.98760  0.34990  1.0000
  C   C18       1.0  0.36760  0.30670  0.81410  1.0000
  C   C19       1.0  0.50400  0.11470  0.31340  1.0000
  C   C20       1.0  0.60310  0.25650  0.60420  1.0000
  H   H8        1.0  0.65270  0.27010  0.58610  1.0000
  C   C21       1.0  0.45420  0.22040  0.65620  1.0000
  H   H9        1.0  0.40390  0.20800  0.67300  1.0000
  C   C22       1.0  0.52420  0.12420  0.37890  1.0000
  C   C23       1.0  0.90160  0.93350  0.32560  1.0000
  C   C24       1.0  0.72800  0.12470  0.63850  1.0000
  C   C25       1.0  0.56350  0.29560  0.64150  1.0000
  H   H10       1.0  0.58690  0.33500  0.64770  1.0000
  C   C26       1.0  0.86470  0.91580  0.27030  1.0000
  C   C27       1.0  0.45480  0.16700  0.19280  1.0000
  C   C28       1.0  0.79970  0.12000  0.76140  1.0000
  C   C29       1.0  0.49390  0.18180  0.61740  1.0000
  H   H11       1.0  0.46900  0.14550  0.60770  1.0000
  C   C30       1.0  0.53700  0.20360  0.44410  1.0000
  H   H12       1.0  0.52780  0.25160  0.44690  1.0000
  C   C31       1.0  0.97950  0.90920  0.34420  1.0000
  H   H13       1.0  0.01030  0.88630  0.31870  1.0000
  C   C32       1.0  0.73290  0.08030  0.76590  1.0000
  H   H14       1.0  0.71160  0.05180  0.81030  1.0000
  C   C33       1.0  0.32260  0.25860  0.87840  1.0000
  C   C34       1.0  0.84400  0.99330  0.53100  1.0000
  H   H15       1.0  0.87860  0.95060  0.55620  1.0000
  C   C35       1.0  0.79790  0.02930  0.56710  1.0000
  H   H16       1.0  0.80330  0.01100  0.61610  1.0000
  C   C36       1.0  0.58010  0.06880  0.49690  1.0000
  H   H17       1.0  0.60010  0.02490  0.53540  1.0000
  C   C37       1.0  0.01150  0.91850  0.39980  1.0000
  H   H18       1.0  0.06360  0.90180  0.41200  1.0000
  C   C38       1.0  0.37510  0.38590  0.79740  1.0000
  H   H19       1.0  0.35030  0.40940  0.82530  1.0000
  C   C39       1.0  0.55610  0.06100  0.43740  1.0000
  H   H20       1.0  0.56140  0.01200  0.43640  1.0000
  C   C40       1.0  0.78800  0.08540  0.42170  1.0000
  H   H21       1.0  0.78500  0.10540  0.37250  1.0000
  C   C41       1.0  0.51300  0.19550  0.38500  1.0000
  H   H22       1.0  0.48880  0.23850  0.34820  1.0000
  C   C42       1.0  0.81990  0.06070  0.89370  1.0000
  H   H23       1.0  0.78390  0.02510  0.89760  1.0000
  C   C43       1.0  0.74130  0.12090  0.45800  1.0000
  H   H24       1.0  0.70790  0.16460  0.43250  1.0000
  C   C44       1.0  0.96520  0.95320  0.43830  1.0000
  H   H25       1.0  0.98630  0.95740  0.47730  1.0000
  C   C45       1.0  0.83770  0.11610  0.82660  1.0000
  C   C46       1.0  0.83070  0.99750  0.02590  1.0000
  C   C47       1.0  0.69820  0.08290  0.70590  1.0000
  H   H26       1.0  0.65400  0.05600  0.71050  1.0000
  C   C48       1.0  0.85370  0.05670  0.95500  1.0000
  C   C49       1.0  0.47080  0.09530  0.19040  1.0000
  H   H27       1.0  0.46240  0.08940  0.14880  1.0000
  C   C50       1.0  0.89300  0.16810  0.82220  1.0000
  H   H28       1.0  0.90780  0.20440  0.77810  1.0000
  C   C51       1.0  0.51640  0.04260  0.31010  1.0000
  H   H29       1.0  0.53670  0.99990  0.34960  1.0000
  C   C52       1.0  0.49960  0.03220  0.25010  1.0000
  H   H30       1.0  0.50750  0.98290  0.24970  1.0000
  C   C53       1.0  0.90630  0.11090  0.94960  1.0000
  H   H31       1.0  0.92810  0.11040  0.99030  1.0000
  C   C54       1.0  0.92580  0.16580  0.88310  1.0000
  H   H32       1.0  0.96150  0.20160  0.87950  1.0000
  O   O9        1.0  0.32651  0.55561  0.07315  1.0000
  O   O10       1.0  0.32098  0.47103  0.02505  1.0000
  O   O11       1.0  0.87267  0.77575  0.13653  1.0000
  O   O12       1.0  0.76685  0.67010  0.88021  1.0000
  O   O13       1.0  0.77725  0.75090  0.93151  1.0000
  O   O14       1.0  0.87662  0.69184  0.08675  1.0000
  O   O15       1.0  0.33690  0.46332  0.25354  1.0000
  O   O16       1.0  0.44620  0.38950  0.25768  1.0000
  C   C55       1.0  0.10230  0.66050  0.55490  1.0000
  C   C56       1.0  0.06680  0.64680  0.49680  1.0000
  C   C57       1.0  0.42290  0.43270  0.34990  1.0000
  C   C58       1.0  0.17650  0.63190  0.57750  1.0000
  C   C59       1.0  0.91680  0.80700  0.71360  1.0000
  C   C60       1.0  0.28170  0.67040  0.63430  1.0000
  H   H33       1.0  0.30740  0.68880  0.59070  1.0000
  C   C61       1.0  0.95770  0.66570  0.25610  1.0000
  H   H34       1.0  0.93970  0.71320  0.25720  1.0000
  C   C62       1.0  0.92050  0.88450  0.70400  1.0000
  H   H35       1.0  0.95070  0.91720  0.66730  1.0000
  C   C63       1.0  0.31440  0.67660  0.69180  1.0000
  H   H36       1.0  0.36070  0.70060  0.68600  1.0000
  C   C64       1.0  0.96110  0.77580  0.66600  1.0000
  C   C65       1.0  0.87220  0.75840  0.77020  1.0000
  H   H37       1.0  0.86870  0.70690  0.77700  1.0000
  C   C66       1.0  0.03100  0.70780  0.43880  1.0000
  H   H38       1.0  0.02170  0.75670  0.43980  1.0000
  C   C67       1.0  0.33290  0.50890  0.48170  1.0000
  C   C68       1.0  0.38840  0.46830  0.44810  1.0000
  C   C69       1.0  0.37000  0.46670  0.38360  1.0000
  H   H39       1.0  0.32170  0.48870  0.36280  1.0000
  C   C70       1.0  0.32650  0.48270  0.55570  1.0000
  H   H40       1.0  0.35590  0.43780  0.58510  1.0000
  C   C71       1.0  0.05160  0.70500  0.58790  1.0000
  C   C72       1.0  0.00210  0.61100  0.31270  1.0000
  C   C73       1.0  0.83570  0.86460  0.80510  1.0000
  H   H41       1.0  0.80850  0.88380  0.83520  1.0000
  C   C74       1.0  0.30710  0.59530  0.88850  1.0000
  H   H42       1.0  0.28570  0.54940  0.89460  1.0000
  C   C75       1.0  0.23080  0.59090  0.54290  1.0000
  C   C76       1.0  0.02110  0.62480  0.37630  1.0000
  C   C77       1.0  0.32710  0.53930  0.01990  1.0000
  C   C78       1.0  0.83310  0.78620  0.81630  1.0000
  C   C79       1.0  0.89290  0.71020  0.13730  1.0000
  C   C80       1.0  0.31130  0.65470  0.82050  1.0000
  C   C81       1.0  0.49630  0.40170  0.38030  1.0000
  H   H43       1.0  0.53270  0.38080  0.35700  1.0000
  C   C82       1.0  0.07750  0.76780  0.59770  1.0000
  H   H44       1.0  0.12520  0.78670  0.57860  1.0000
  C   C83       1.0  0.27840  0.64700  0.75860  1.0000
  C   C84       1.0  0.23820  0.61720  0.46970  1.0000
  H   H45       1.0  0.20960  0.66270  0.44040  1.0000
  C   C85       1.0  0.28780  0.57650  0.43970  1.0000
  H   H46       1.0  0.29100  0.59480  0.39050  1.0000
  C   C86       1.0  0.21040  0.63700  0.64070  1.0000
  C   C87       1.0  0.07310  0.57340  0.49600  1.0000
  H   H47       1.0  0.09220  0.53060  0.53590  1.0000
  C   C88       1.0  0.03240  0.80250  0.63600  1.0000
  H   H48       1.0  0.05060  0.84470  0.64170  1.0000
  C   C89       1.0  0.36850  0.67160  0.93850  1.0000
  H   H49       1.0  0.38670  0.67770  0.97750  1.0000
  C   C90       1.0  0.05160  0.56260  0.43720  1.0000
  H   H50       1.0  0.05760  0.51270  0.43800  1.0000
  C   C91       1.0  0.46040  0.43340  0.47960  1.0000
  H   H51       1.0  0.47190  0.43110  0.52400  1.0000
  C   C92       1.0  0.97660  0.68280  0.61230  1.0000
  H   H52       1.0  0.95590  0.64470  0.60200  1.0000
  C   C93       1.0  0.94010  0.65040  0.19840  1.0000
  C   C94       1.0  0.33440  0.60350  0.94750  1.0000
  C   C95       1.0  0.87920  0.91320  0.74890  1.0000
  H   H53       1.0  0.88090  0.96530  0.74110  1.0000
  C   C96       1.0  0.40070  0.42900  0.28220  1.0000
  C   C97       1.0  0.51530  0.40150  0.44490  1.0000
  H   H54       1.0  0.56420  0.38050  0.46510  1.0000
  C   C98       1.0  0.79010  0.73230  0.87960  1.0000
  C   C99       1.0  0.27630  0.52350  0.58540  1.0000
  H   H55       1.0  0.27310  0.50560  0.63460  1.0000
  C   C100      1.0  0.00880  0.69770  0.37920  1.0000
  H   H56       1.0  0.98550  0.73990  0.34100  1.0000
  C   C101      1.0  0.93270  0.71660  0.65140  1.0000
  H   H57       1.0  0.88360  0.69980  0.66830  1.0000
  C   C102      1.0  0.37500  0.72950  0.87120  1.0000
  H   H58       1.0  0.39850  0.77450  0.86490  1.0000
  C   C103      1.0  0.20920  0.61080  0.76540  1.0000
  H   H59       1.0  0.18520  0.58930  0.80960  1.0000
  C   C104      1.0  0.34680  0.72160  0.81240  1.0000
  H   H60       1.0  0.35170  0.76140  0.76740  1.0000
  C   C105      1.0  0.17560  0.60620  0.70740  1.0000
  H   H61       1.0  0.12930  0.58210  0.71320  1.0000
  C   C106      1.0  0.02950  0.54130  0.30800  1.0000
  H   H62       1.0  0.06140  0.50490  0.34380  1.0000
  C   C107      1.0  0.96590  0.57950  0.19630  1.0000
  H   H63       1.0  0.95330  0.56870  0.15810  1.0000
  C   C108      1.0  0.01030  0.52530  0.25150  1.0000
  H   H64       1.0  0.02740  0.47740  0.25060  1.0000
  O   O17       1.0  0.69131  0.71754  0.07313  1.0000
  O   O18       1.0  0.59422  0.77807  0.92512  1.0000
  O   O19       1.0  0.70105  0.80458  0.11775  1.0000
  O   O20       1.0  0.59484  0.69957  0.86924  1.0000
  O   O21       1.0  0.09599  0.12763  0.75423  1.0000
  O   O22       1.0  0.20340  0.05970  0.97141  1.0000
  O   O23       1.0  0.20388  0.05625  0.74925  1.0000
  O   O24       1.0  0.15590  0.99320  0.91845  1.0000
  C   C109      1.0  0.51070  0.72330  0.33035  1.0000
  C   C110      1.0  0.42490  0.85910  0.49984  1.0000
  C   C111      1.0  0.38480  0.84700  0.44274  1.0000
  C   C112      1.0  0.55050  0.68480  0.28680  1.0000
  C   C113      1.0  0.54230  0.60630  0.30160  1.0000
  H   H65       1.0  0.51090  0.57730  0.33920  1.0000
  C   C114      1.0  0.30860  0.87410  0.42620  1.0000
  C   C115      1.0  0.17140  0.83750  0.30620  1.0000
  H   H66       1.0  0.12810  0.80930  0.31110  1.0000
  C   C116      1.0  0.43010  0.80250  0.40645  1.0000
  C   C117      1.0  0.16070  0.97990  0.54220  1.0000
  C   C118      1.0  0.20530  0.83610  0.36620  1.0000
  H   H67       1.0  0.18340  0.80860  0.41050  1.0000
  C   C119      1.0  0.11180  0.01870  0.58150  1.0000
  C   C120      1.0  0.58090  0.57140  0.26030  1.0000
  H   H68       1.0  0.57680  0.51870  0.27190  1.0000
  C   C121      1.0  0.58000  0.76550  0.87050  1.0000
  C   C122      1.0  0.59650  0.72710  0.22860  1.0000
  H   H69       1.0  0.60320  0.77910  0.21840  1.0000
  C   C123      1.0  0.52840  0.82320  0.74620  1.0000
  H   H70       1.0  0.53900  0.77440  0.74510  1.0000
  C   C124      1.0  0.25680  0.90770  0.46780  1.0000
  C   C125      1.0  0.14340  0.02970  0.63720  1.0000
  H   H71       1.0  0.19520  0.01240  0.65010  1.0000
  C   C126      1.0  0.63240  0.69330  0.18590  1.0000
  C   C127      1.0  0.49600  0.88530  0.68660  1.0000
  C   C128      1.0  0.39690  0.74350  0.39580  1.0000
  H   H72       1.0  0.34730  0.72990  0.41390  1.0000
  C   C129      1.0  0.54580  0.77960  0.34380  1.0000
  H   H73       1.0  0.59610  0.79200  0.32700  1.0000
  C   C130      1.0  0.47580  0.87580  0.62110  1.0000
  C   C131      1.0  0.09840  0.06650  0.67440  1.0000
  C   C132      1.0  0.27200  0.87530  0.36150  1.0000
  C   C133      1.0  0.43650  0.70440  0.35850  1.0000
  H   H74       1.0  0.41310  0.66500  0.35230  1.0000
  C   C134      1.0  0.13530  0.08420  0.72970  1.0000
  C   C135      1.0  0.54520  0.83300  0.80720  1.0000
  C   C136      1.0  0.20030  0.88000  0.23860  1.0000
  C   C137      1.0  0.50610  0.81820  0.38260  1.0000
  H   H75       1.0  0.53100  0.85450  0.39230  1.0000
  C   C138      1.0  0.46300  0.79640  0.55590  1.0000
  H   H76       1.0  0.47220  0.74840  0.55310  1.0000
  C   C139      1.0  0.02050  0.09080  0.65580  1.0000
  H   H77       1.0  0.98970  0.11370  0.68130  1.0000
  C   C140      1.0  0.26710  0.91970  0.23410  1.0000
  H   H78       1.0  0.28840  0.94820  0.18970  1.0000
  C   C141      1.0  0.67740  0.74140  0.12160  1.0000
  C   C142      1.0  0.15600  0.00670  0.46900  1.0000
  H   H79       1.0  0.12140  0.04940  0.44380  1.0000
  C   C143      1.0  0.20210  0.97070  0.43290  1.0000
  H   H80       1.0  0.19670  0.98900  0.38390  1.0000
  C   C144      1.0  0.41990  0.93120  0.50310  1.0000
  H   H81       1.0  0.39990  0.97510  0.46460  1.0000
  C   C145      1.0  0.98850  0.08150  0.60020  1.0000
  H   H82       1.0  0.93640  0.09820  0.58800  1.0000
  C   C146      1.0  0.62490  0.61410  0.20260  1.0000
  H   H83       1.0  0.64970  0.59060  0.17470  1.0000
  C   C147      1.0  0.44390  0.93900  0.56260  1.0000
  H   H84       1.0  0.43860  0.98800  0.56360  1.0000
  C   C148      1.0  0.21200  0.91460  0.57830  1.0000
  H   H85       1.0  0.21500  0.89460  0.62750  1.0000
  C   C149      1.0  0.48700  0.80450  0.61500  1.0000
  H   H86       1.0  0.51120  0.76150  0.65180  1.0000
  C   C150      1.0  0.18010  0.93930  0.10630  1.0000
  H   H87       1.0  0.21610  0.97490  0.10240  1.0000
  C   C151      1.0  0.25870  0.87910  0.54200  1.0000
  H   H88       1.0  0.29210  0.83540  0.56750  1.0000
  C   C152      1.0  0.03480  0.04680  0.56170  1.0000
  H   H89       1.0  0.01370  0.04260  0.52270  1.0000
  C   C153      1.0  0.16230  0.88390  0.17340  1.0000
  C   C154      1.0  0.16930  0.00250  0.97410  1.0000
  C   C155      1.0  0.30180  0.91710  0.29410  1.0000
  H   H90       1.0  0.34600  0.94400  0.28950  1.0000
  C   C156      1.0  0.14630  0.94330  0.04500  1.0000
  C   C157      1.0  0.52920  0.90470  0.80960  1.0000
  H   H91       1.0  0.53760  0.91060  0.85120  1.0000
  C   C158      1.0  0.10700  0.83190  0.17780  1.0000
  H   H92       1.0  0.09220  0.79560  0.22190  1.0000
  C   C159      1.0  0.48360  0.95740  0.68990  1.0000
  H   H93       1.0  0.46330  0.00010  0.65040  1.0000
  C   C160      1.0  0.50040  0.96780  0.74990  1.0000
  H   H94       1.0  0.49250  0.01710  0.75030  1.0000
  C   C161      1.0  0.09370  0.88910  0.05040  1.0000
  H   H95       1.0  0.07190  0.88960  0.00970  1.0000
  C   C162      1.0  0.07420  0.83420  0.11690  1.0000
  H   H96       1.0  0.03850  0.79840  0.12050  1.0000
  O   O25       1.0  0.67349  0.44439  0.92685  1.0000
  O   O26       1.0  0.67902  0.52897  0.97495  1.0000
  O   O27       1.0  0.12733  0.22425  0.86347  1.0000
  O   O28       1.0  0.23315  0.32990  0.11979  1.0000
  O   O29       1.0  0.22275  0.24910  0.06849  1.0000
  O   O30       1.0  0.12338  0.30816  0.91325  1.0000
  O   O31       1.0  0.66310  0.53668  0.74646  1.0000
  O   O32       1.0  0.55380  0.61050  0.74232  1.0000
  C   C163      1.0  0.89770  0.33950  0.44510  1.0000
  C   C164      1.0  0.93320  0.35320  0.50320  1.0000
  C   C165      1.0  0.57710  0.56730  0.65010  1.0000
  C   C166      1.0  0.82350  0.36810  0.42250  1.0000
  C   C167      1.0  0.08320  0.19300  0.28640  1.0000
  C   C168      1.0  0.71830  0.32960  0.36570  1.0000
  H   H97       1.0  0.69260  0.31120  0.40930  1.0000
  C   C169      1.0  0.04230  0.33430  0.74390  1.0000
  H   H98       1.0  0.06030  0.28680  0.74280  1.0000
  C   C170      1.0  0.07950  0.11550  0.29600  1.0000
  H   H99       1.0  0.04930  0.08280  0.33270  1.0000
  C   C171      1.0  0.68560  0.32340  0.30820  1.0000
  H   H100      1.0  0.63930  0.29940  0.31400  1.0000
  C   C172      1.0  0.03890  0.22420  0.33400  1.0000
  C   C173      1.0  0.12780  0.24160  0.22980  1.0000
  H   H101      1.0  0.13130  0.29310  0.22300  1.0000
  C   C174      1.0  0.96900  0.29220  0.56120  1.0000
  H   H102      1.0  0.97830  0.24330  0.56020  1.0000
  C   C175      1.0  0.66710  0.49110  0.51830  1.0000
  C   C176      1.0  0.61160  0.53170  0.55190  1.0000
  C   C177      1.0  0.63000  0.53330  0.61640  1.0000
  H   H103      1.0  0.67830  0.51130  0.63720  1.0000
  C   C178      1.0  0.67350  0.51730  0.44430  1.0000
  H   H104      1.0  0.64410  0.56220  0.41490  1.0000
  C   C179      1.0  0.94840  0.29500  0.41210  1.0000
  C   C180      1.0  0.99790  0.38900  0.68730  1.0000
  C   C181      1.0  0.16430  0.13540  0.19490  1.0000
  H   H105      1.0  0.19150  0.11620  0.16480  1.0000
  C   C182      1.0  0.69290  0.40470  0.11150  1.0000
  H   H106      1.0  0.71430  0.45060  0.10540  1.0000
  C   C183      1.0  0.76920  0.40910  0.45710  1.0000
  C   C184      1.0  0.97890  0.37520  0.62370  1.0000
  C   C185      1.0  0.67290  0.46070  0.98010  1.0000
  C   C186      1.0  0.16690  0.21380  0.18370  1.0000
  C   C187      1.0  0.10710  0.28980  0.86270  1.0000
  C   C188      1.0  0.68870  0.34530  0.17950  1.0000
  C   C189      1.0  0.50370  0.59830  0.61970  1.0000
  H   H107      1.0  0.46730  0.61920  0.64300  1.0000
  C   C190      1.0  0.92250  0.23220  0.40230  1.0000
  H   H108      1.0  0.87480  0.21330  0.42140  1.0000
  C   C191      1.0  0.72160  0.35300  0.24140  1.0000
  C   C192      1.0  0.76180  0.38280  0.53030  1.0000
  H   H109      1.0  0.79040  0.33730  0.55960  1.0000
  C   C193      1.0  0.71220  0.42350  0.56030  1.0000
  H   H110      1.0  0.70900  0.40520  0.60950  1.0000
  C   C194      1.0  0.78960  0.36300  0.35930  1.0000
  C   C195      1.0  0.92690  0.42660  0.50400  1.0000
  H   H111      1.0  0.90780  0.46940  0.46410  1.0000
  C   C196      1.0  0.96760  0.19750  0.36400  1.0000
  H   H112      1.0  0.94940  0.15530  0.35830  1.0000
  C   C197      1.0  0.63150  0.32840  0.06150  1.0000
  H   H113      1.0  0.61330  0.32230  0.02250  1.0000
  C   C198      1.0  0.94840  0.43740  0.56280  1.0000
  H   H114      1.0  0.94240  0.48730  0.56200  1.0000
  C   C199      1.0  0.53960  0.56660  0.52040  1.0000
  H   H115      1.0  0.52810  0.56890  0.47600  1.0000
  C   C200      1.0  0.02340  0.31720  0.38770  1.0000
  H   H116      1.0  0.04410  0.35530  0.39800  1.0000
  C   C201      1.0  0.05990  0.34960  0.80160  1.0000
  C   C202      1.0  0.66560  0.39650  0.05250  1.0000
  C   C203      1.0  0.12080  0.08680  0.25110  1.0000
  H   H117      1.0  0.11910  0.03470  0.25890  1.0000
  C   C204      1.0  0.59930  0.57100  0.71780  1.0000
  C   C205      1.0  0.48470  0.59850  0.55510  1.0000
  H   H118      1.0  0.43580  0.61950  0.53490  1.0000
  C   C206      1.0  0.20990  0.26770  0.12040  1.0000
  C   C207      1.0  0.72370  0.47650  0.41460  1.0000
  H   H119      1.0  0.72690  0.49440  0.36540  1.0000
  C   C208      1.0  0.99120  0.30230  0.62080  1.0000
  H   H120      1.0  0.01450  0.26010  0.65900  1.0000
  C   C209      1.0  0.06730  0.28340  0.34860  1.0000
  H   H121      1.0  0.11640  0.30020  0.33170  1.0000
  C   C210      1.0  0.62500  0.27050  0.12880  1.0000
  H   H122      1.0  0.60150  0.22550  0.13510  1.0000
  C   C211      1.0  0.79080  0.38920  0.23460  1.0000
  H   H123      1.0  0.81480  0.41070  0.19040  1.0000
  C   C212      1.0  0.65320  0.27840  0.18760  1.0000
  H   H124      1.0  0.64830  0.23860  0.23260  1.0000
  C   C213      1.0  0.82440  0.39380  0.29260  1.0000
  H   H125      1.0  0.87070  0.41790  0.28680  1.0000
  C   C214      1.0  0.97050  0.45870  0.69200  1.0000
  H   H126      1.0  0.93860  0.49510  0.65620  1.0000
  C   C215      1.0  0.03410  0.42050  0.80370  1.0000
  H   H127      1.0  0.04670  0.43130  0.84190  1.0000
  C   C216      1.0  0.98970  0.47470  0.74850  1.0000
  H   H128      1.0  0.97260  0.52260  0.74940  1.0000
  O   O33       1.0  0.44900  0.40970  0.93909  1.0000
  H   H129      1.0  0.49270  0.38990  0.93080  1.0000
  O   O34       1.0  0.92630  0.85410  0.94880  1.0000
  H   H130      1.0  0.95950  0.82580  0.92240  1.0000
  H   H131      1.0  0.50730  0.61010  0.06920  1.0000
  O   O35       1.0  0.55100  0.59030  0.06091  1.0000
  O   O36       1.0  0.07370  0.14590  0.05120  1.0000
  H   H132      1.0  0.04050  0.17420  0.07760  1.0000
  Sr  Sr1       1.0  0.79685  0.81943  0.00934  1.0000
  Sr  Sr2       1.0  0.32507  0.35279  0.00287  1.0000
  Sr  Sr3       1.0  0.78619  0.87251  0.16954  1.0000
  Sr  Sr4       1.0  0.32420  0.40390  0.16368  1.0000
  Sr  Sr5       1.0  0.20315  0.18057  0.99066  1.0000
  Sr  Sr6       1.0  0.67493  0.64721  0.99713  1.0000
  Sr  Sr7       1.0  0.21381  0.12749  0.83046  1.0000
  Sr  Sr8       1.0  0.67580  0.59610  0.83632  1.0000
