data_image0
_chemical_formula_structural       O8CHC2HCHC3HCHC2HC3HC5HCHCHCHCHCHC2HC4HCHCHC4HCHC3HCHCHC2HCHC2HCHC2HCHCHCHCHCHO8CHC2HCHC3HCHC2HC3HC5HCHCHCHCHCHC2HC4HCHCHC4HCHC3HCHCHC2HCHC2HCHC2HCHCHCHCHCHSr4
_chemical_formula_sum              "O16 C108 H64 Sr4"
_cell_length_a       12.5395
_cell_length_b       14.0067
_cell_length_c       19.8586
_cell_angle_alpha    108.938
_cell_angle_beta     103.246
_cell_angle_gamma    96.068

_space_group_name_H-M_alt    "P 1"
_space_group_IT_number       1

loop_
  _space_group_symop_operation_xyz
  'x, y, z'

loop_
  _atom_site_type_symbol
  _atom_site_label
  _atom_site_symmetry_multiplicity
  _atom_site_fract_x
  _atom_site_fract_y
  _atom_site_fract_z
  _atom_site_occupancy
  O   O1        1.0  0.15220  0.23000  0.96472  1.0000
  O   O2        1.0  0.91780  0.64560  0.12864  1.0000
  O   O3        1.0  0.95090  0.97860  0.73357  1.0000
  O   O4        1.0  0.90120  0.19640  0.86403  1.0000
  O   O5        1.0  0.98810  0.51010  0.08009  1.0000
  O   O6        1.0  0.11910  0.06020  0.91353  1.0000
  O   O7        1.0  0.82120  0.32130  0.91908  1.0000
  O   O8        1.0  0.12940  0.00250  0.73649  1.0000
  C   C1        1.0  0.38040  0.41660  0.37620  1.0000
  H   H1        1.0  0.39790  0.41530  0.42400  1.0000
  C   C2        1.0  0.77950  0.57170  0.33530  1.0000
  C   C3        1.0  0.87260  0.56700  0.23520  1.0000
  H   H2        1.0  0.83220  0.61490  0.22470  1.0000
  C   C4        1.0  0.70620  0.11170  0.74130  1.0000
  H   H3        1.0  0.76250  0.07360  0.74300  1.0000
  C   C5        1.0  0.55740  0.78230  0.50140  1.0000
  C   C6        1.0  0.43300  0.61060  0.43010  1.0000
  C   C7        1.0  0.92340  0.46330  0.30790  1.0000
  H   H4        1.0  0.91570  0.43910  0.34520  1.0000
  C   C8        1.0  0.00890  0.46170  0.21060  1.0000
  H   H5        1.0  0.05850  0.43810  0.18360  1.0000
  C   C9        1.0  0.14770  0.14080  0.96900  1.0000
  C   C10       1.0  0.33750  0.32590  0.31590  1.0000
  H   H6        1.0  0.32960  0.26410  0.32390  1.0000
  C   C11       1.0  0.61160  0.07580  0.67990  1.0000
  C   C12       1.0  0.53150  0.67460  0.44660  1.0000
  C   C13       1.0  0.49750  0.93950  0.55910  1.0000
  H   H7        1.0  0.44260  0.97920  0.55880  1.0000
  C   C14       1.0  0.85970  0.53350  0.29280  1.0000
  C   C15       1.0  0.08260  0.71210  0.57190  1.0000
  C   C16       1.0  0.17230  0.68240  0.53650  1.0000
  C   C17       1.0  0.62090  0.64070  0.41060  1.0000
  C   C18       1.0  0.10010  0.80860  0.62750  1.0000
  H   H8        1.0  0.16910  0.85270  0.64350  1.0000
  C   C19       1.0  0.65920  0.82140  0.55620  1.0000
  H   H9        1.0  0.71550  0.78320  0.55460  1.0000
  C   C20       1.0  0.64900  0.54490  0.40350  1.0000
  H   H10       1.0  0.61500  0.50320  0.42380  1.0000
  C   C21       1.0  0.22910  0.22470  0.10630  1.0000
  H   H11       1.0  0.25060  0.28470  0.09820  1.0000
  C   C22       1.0  0.14480  0.04580  0.05680  1.0000
  H   H12       1.0  0.11060  0.98570  0.01630  1.0000
  C   C23       1.0  0.28410  0.70660  0.57850  1.0000
  H   H13       1.0  0.30210  0.73980  0.62970  1.0000
  C   C24       1.0  0.01560  0.83970  0.65910  1.0000
  C   C25       1.0  0.36840  0.68220  0.54550  1.0000
  H   H14       1.0  0.44180  0.69760  0.57480  1.0000
  C   C26       1.0  0.25110  0.22680  0.17910  1.0000
  C   C27       1.0  0.30590  0.32390  0.24360  1.0000
  C   C28       1.0  0.59670  0.97610  0.61720  1.0000
  C   C29       1.0  0.97900  0.64600  0.54920  1.0000
  H   H15       1.0  0.96530  0.58250  0.51110  1.0000
  C   C30       1.0  0.75430  0.66850  0.34500  1.0000
  H   H16       1.0  0.78940  0.71100  0.32570  1.0000
  C   C31       1.0  0.72710  0.51090  0.36630  1.0000
  H   H17       1.0  0.74470  0.44670  0.36210  1.0000
  C   C32       1.0  0.94460  0.52990  0.19370  1.0000
  C   C33       1.0  0.39740  0.51050  0.36550  1.0000
  C   C34       1.0  0.71750  0.20330  0.79990  1.0000
  C   C35       1.0  0.16440  0.04510  0.12860  1.0000
  H   H18       1.0  0.14290  0.98470  0.13620  1.0000
  C   C36       1.0  0.91440  0.77140  0.63750  1.0000
  H   H19       1.0  0.85850  0.79060  0.65980  1.0000
  C   C37       1.0  0.34450  0.63450  0.46850  1.0000
  C   C38       1.0  0.03300  0.94770  0.71400  1.0000
  C   C39       1.0  0.67860  0.91610  0.61290  1.0000
  H   H20       1.0  0.74740  0.94000  0.64870  1.0000
  C   C40       1.0  0.67710  0.70320  0.38320  1.0000
  H   H21       1.0  0.66330  0.76920  0.39030  1.0000
  C   C41       1.0  0.99840  0.42900  0.26790  1.0000
  H   H22       1.0  0.04190  0.38370  0.27970  1.0000
  C   C42       1.0  0.81980  0.24250  0.86500  1.0000
  C   C43       1.0  0.47940  0.84590  0.50240  1.0000
  H   H23       1.0  0.41350  0.82490  0.46400  1.0000
  C   C44       1.0  0.89650  0.67540  0.58340  1.0000
  H   H24       1.0  0.82880  0.63000  0.56970  1.0000
  C   C45       1.0  0.17620  0.13580  0.04590  1.0000
  C   C46       1.0  0.23260  0.60840  0.42740  1.0000
  H   H25       1.0  0.21410  0.57400  0.37640  1.0000
  C   C47       1.0  0.21590  0.13480  0.18850  1.0000
  H   H26       1.0  0.22740  0.13400  0.23630  1.0000
  C   C48       1.0  0.95130  0.56470  0.13120  1.0000
  C   C49       1.0  0.36920  0.50920  0.29370  1.0000
  H   H27       1.0  0.38160  0.57050  0.28550  1.0000
  C   C50       1.0  0.14850  0.63210  0.46030  1.0000
  H   H28       1.0  0.07480  0.61430  0.43110  1.0000
  C   C51       1.0  0.32260  0.41820  0.23380  1.0000
  H   H29       1.0  0.30210  0.42000  0.18620  1.0000
  C   C52       1.0  0.53010  0.13560  0.67950  1.0000
  H   H30       1.0  0.46630  0.11350  0.63940  1.0000
  C   C53       1.0  0.63430  0.26010  0.79790  1.0000
  H   H31       1.0  0.64100  0.32070  0.83740  1.0000
  C   C54       1.0  0.54120  0.22730  0.73730  1.0000
  H   H32       1.0  0.48610  0.26670  0.73530  1.0000
  O   O9        1.0  0.84780  0.77000  0.03528  1.0000
  O   O10       1.0  0.08220  0.35440  0.87136  1.0000
  O   O11       1.0  0.04910  0.02140  0.26643  1.0000
  O   O12       1.0  0.09880  0.80360  0.13597  1.0000
  O   O13       1.0  0.01190  0.48990  0.91991  1.0000
  O   O14       1.0  0.88090  0.93980  0.08647  1.0000
  O   O15       1.0  0.17880  0.67870  0.08092  1.0000
  O   O16       1.0  0.87060  0.99750  0.26351  1.0000
  C   C55       1.0  0.61960  0.58340  0.62380  1.0000
  H   H33       1.0  0.60210  0.58470  0.57600  1.0000
  C   C56       1.0  0.22050  0.42830  0.66470  1.0000
  C   C57       1.0  0.12740  0.43300  0.76480  1.0000
  H   H34       1.0  0.16780  0.38510  0.77530  1.0000
  C   C58       1.0  0.29380  0.88830  0.25870  1.0000
  H   H35       1.0  0.23750  0.92640  0.25700  1.0000
  C   C59       1.0  0.44260  0.21770  0.49860  1.0000
  C   C60       1.0  0.56700  0.38940  0.56990  1.0000
  C   C61       1.0  0.07660  0.53670  0.69210  1.0000
  H   H36       1.0  0.08430  0.56090  0.65480  1.0000
  C   C62       1.0  0.99110  0.53830  0.78940  1.0000
  H   H37       1.0  0.94150  0.56190  0.81640  1.0000
  C   C63       1.0  0.85230  0.85920  0.03100  1.0000
  C   C64       1.0  0.66250  0.67410  0.68410  1.0000
  H   H38       1.0  0.67040  0.73590  0.67610  1.0000
  C   C65       1.0  0.38840  0.92420  0.32010  1.0000
  C   C66       1.0  0.46850  0.32540  0.55340  1.0000
  C   C67       1.0  0.50250  0.06050  0.44090  1.0000
  H   H39       1.0  0.55740  0.02080  0.44120  1.0000
  C   C68       1.0  0.14030  0.46650  0.70720  1.0000
  C   C69       1.0  0.91740  0.28790  0.42810  1.0000
  C   C70       1.0  0.82770  0.31760  0.46350  1.0000
  C   C71       1.0  0.37910  0.35930  0.58940  1.0000
  C   C72       1.0  0.89990  0.19140  0.37250  1.0000
  H   H40       1.0  0.83090  0.14730  0.35650  1.0000
  C   C73       1.0  0.34080  0.17860  0.44380  1.0000
  H   H41       1.0  0.28450  0.21680  0.44540  1.0000
  C   C74       1.0  0.35100  0.45510  0.59650  1.0000
  H   H42       1.0  0.38500  0.49680  0.57620  1.0000
  C   C75       1.0  0.77090  0.77530  0.89370  1.0000
  H   H43       1.0  0.74940  0.71530  0.90180  1.0000
  C   C76       1.0  0.85520  0.95420  0.94320  1.0000
  H   H44       1.0  0.88940  0.01430  0.98370  1.0000
  C   C77       1.0  0.71590  0.29340  0.42150  1.0000
  H   H45       1.0  0.69790  0.26020  0.37030  1.0000
  C   C78       1.0  0.98440  0.16030  0.34090  1.0000
  C   C79       1.0  0.63160  0.31780  0.45450  1.0000
  H   H46       1.0  0.55820  0.30240  0.42520  1.0000
  C   C80       1.0  0.74890  0.77320  0.82090  1.0000
  C   C81       1.0  0.69410  0.67610  0.75640  1.0000
  C   C82       1.0  0.40330  0.02390  0.38280  1.0000
  C   C83       1.0  0.02100  0.35400  0.45080  1.0000
  H   H47       1.0  0.03470  0.41750  0.48890  1.0000
  C   C84       1.0  0.24570  0.33150  0.65500  1.0000
  H   H48       1.0  0.21060  0.28900  0.67430  1.0000
  C   C85       1.0  0.27290  0.48910  0.63370  1.0000
  H   H49       1.0  0.25530  0.55330  0.63790  1.0000
  C   C86       1.0  0.05540  0.47010  0.80630  1.0000
  C   C87       1.0  0.60260  0.48950  0.63450  1.0000
  C   C88       1.0  0.28250  0.79670  0.20010  1.0000
  C   C89       1.0  0.83560  0.95490  0.87140  1.0000
  H   H50       1.0  0.85710  0.01530  0.86380  1.0000
  C   C90       1.0  0.08560  0.22860  0.36250  1.0000
  H   H51       1.0  0.14150  0.20940  0.34020  1.0000
  C   C91       1.0  0.65550  0.36550  0.53150  1.0000
  C   C92       1.0  0.96700  0.05230  0.28600  1.0000
  C   C93       1.0  0.32140  0.08390  0.38710  1.0000
  H   H52       1.0  0.25260  0.06000  0.35130  1.0000
  C   C94       1.0  0.32290  0.29680  0.61680  1.0000
  H   H53       1.0  0.33670  0.23080  0.60970  1.0000
  C   C95       1.0  0.00160  0.57100  0.73210  1.0000
  H   H54       1.0  0.95810  0.61630  0.72030  1.0000
  C   C96       1.0  0.18020  0.75750  0.13500  1.0000
  C   C97       1.0  0.52060  0.15410  0.49760  1.0000
  H   H55       1.0  0.58650  0.17510  0.53600  1.0000
  C   C98       1.0  0.10350  0.32460  0.41660  1.0000
  H   H56       1.0  0.17120  0.37000  0.43030  1.0000
  C   C99       1.0  0.82380  0.86420  0.95410  1.0000
  C   C100      1.0  0.76740  0.39160  0.57260  1.0000
  H   H57       1.0  0.78590  0.42600  0.62360  1.0000
  C   C101      1.0  0.78410  0.86520  0.81150  1.0000
  H   H58       1.0  0.77260  0.86600  0.76370  1.0000
  C   C102      1.0  0.04870  0.43530  0.86880  1.0000
  C   C103      1.0  0.63080  0.49080  0.70630  1.0000
  H   H59       1.0  0.61840  0.42950  0.71450  1.0000
  C   C104      1.0  0.85150  0.36790  0.53970  1.0000
  H   H60       1.0  0.92520  0.38570  0.56890  1.0000
  C   C105      1.0  0.67740  0.58180  0.76620  1.0000
  H   H61       1.0  0.69790  0.58000  0.81380  1.0000
  C   C106      1.0  0.46990  0.86440  0.32050  1.0000
  H   H62       1.0  0.53370  0.88650  0.36060  1.0000
  C   C107      1.0  0.36570  0.73990  0.20210  1.0000
  H   H63       1.0  0.35900  0.67930  0.16260  1.0000
  C   C108      1.0  0.45880  0.77270  0.26270  1.0000
  H   H64       1.0  0.51390  0.73330  0.26470  1.0000
  Sr  Sr1       1.0  0.02714  0.35564  0.99174  1.0000
  Sr  Sr2       1.0  0.07303  0.16002  0.82014  1.0000
  Sr  Sr3       1.0  0.97286  0.64436  0.00826  1.0000
  Sr  Sr4       1.0  0.92697  0.83998  0.17986  1.0000
