data_image0
_chemical_formula_structural       O7C2H2C4HCHCHCHC2HC2HCHC2O2C2H2C4HCHCHCHC2HC2HCHC2O5HC2HC2HCHC2O7C2H2C4HCHCHCO7C2H2C4HCHCHCHC2HC2HCHC2O2PO3PO3PO8PMo12Zn4O24Mo12Zn4O24Mo12Zn4O24Mo12Zn4O24
_chemical_formula_sum              "O140 C64 H36 P4 Mo48 Zn16"
_cell_length_a       16.158
_cell_length_b       28.923
_cell_length_c       21.96
_cell_angle_alpha    90
_cell_angle_beta     95.837
_cell_angle_gamma    90

_space_group_name_H-M_alt    "P 1"
_space_group_IT_number       1

loop_
  _space_group_symop_operation_xyz
  'x, y, z'

loop_
  _atom_site_type_symbol
  _atom_site_label
  _atom_site_symmetry_multiplicity
  _atom_site_fract_x
  _atom_site_fract_y
  _atom_site_fract_z
  _atom_site_occupancy
  O   O1        1.0  0.63790  0.38650  0.32120  1.0000
  O   O2        1.0  0.69270  0.40750  0.23390  1.0000
  O   O3        1.0  0.33180  0.39370  0.32690  1.0000
  O   O4        1.0  0.45090  0.43720  0.08270  1.0000
  O   O5        1.0  0.25290  0.41290  0.24250  1.0000
  O   O6        1.0  0.48440  0.68430  0.05760  1.0000
  O   O7        1.0  0.49830  0.67260  0.15890  1.0000
  C   C1        1.0  0.40010  0.41130  0.23800  1.0000
  C   C2        1.0  0.38700  0.46910  0.05850  1.0000
  H   H1        1.0  0.33502  0.46248  0.07717  1.0000
  H   H2        1.0  0.37578  0.46433  0.01376  1.0000
  C   C3        1.0  0.48240  0.66050  0.10340  1.0000
  C   C4        1.0  0.45850  0.42560  0.14390  1.0000
  C   C5        1.0  0.46150  0.60930  0.09500  1.0000
  C   C6        1.0  0.47650  0.40190  0.26660  1.0000
  H   H3        1.0  0.48242  0.39182  0.30800  1.0000
  C   C7        1.0  0.43930  0.58190  0.14170  1.0000
  H   H4        1.0  0.44266  0.59345  0.18242  1.0000
  C   C8        1.0  0.39040  0.42220  0.17680  1.0000
  H   H5        1.0  0.33617  0.42744  0.15698  1.0000
  C   C9        1.0  0.41160  0.53680  0.12880  1.0000
  H   H6        1.0  0.39258  0.51853  0.16049  1.0000
  C   C10       1.0  0.32520  0.40430  0.27430  1.0000
  C   C11       1.0  0.43520  0.54580  0.02500  1.0000
  H   H7        1.0  0.43459  0.53350  0.98487  1.0000
  C   C12       1.0  0.54550  0.40710  0.23520  1.0000
  C   C13       1.0  0.46020  0.59090  0.03560  1.0000
  H   H8        1.0  0.47642  0.60940  0.00311  1.0000
  C   C14       1.0  0.53450  0.41990  0.17250  1.0000
  H   H9        1.0  0.58170  0.42435  0.15070  1.0000
  C   C15       1.0  0.63170  0.40000  0.26710  1.0000
  C   C16       1.0  0.41150  0.51850  0.07070  1.0000
  O   O8        1.0  0.01560  0.18430  0.44240  1.0000
  O   O9        1.0  0.00170  0.17260  0.34110  1.0000
  C   C17       1.0  0.09990  0.91130  0.26200  1.0000
  C   C18       1.0  0.11300  0.96910  0.44150  1.0000
  H   H10       1.0  0.16498  0.96248  0.42283  1.0000
  H   H11       1.0  0.12422  0.96433  0.48624  1.0000
  C   C19       1.0  0.01760  0.16050  0.39660  1.0000
  C   C20       1.0  0.04150  0.92560  0.35610  1.0000
  C   C21       1.0  0.03850  0.10930  0.40500  1.0000
  C   C22       1.0  0.02350  0.90190  0.23340  1.0000
  H   H12       1.0  0.01758  0.89182  0.19200  1.0000
  C   C23       1.0  0.06070  0.08190  0.35830  1.0000
  H   H13       1.0  0.05734  0.09345  0.31758  1.0000
  C   C24       1.0  0.10960  0.92220  0.32320  1.0000
  H   H14       1.0  0.16383  0.92744  0.34302  1.0000
  C   C25       1.0  0.08840  0.03680  0.37120  1.0000
  H   H15       1.0  0.10742  0.01853  0.33951  1.0000
  C   C26       1.0  0.17480  0.90430  0.22570  1.0000
  C   C27       1.0  0.06480  0.04580  0.47500  1.0000
  H   H16       1.0  0.06541  0.03350  0.51513  1.0000
  C   C28       1.0  0.95450  0.90710  0.26480  1.0000
  C   C29       1.0  0.03980  0.09090  0.46440  1.0000
  H   H17       1.0  0.02358  0.10940  0.49689  1.0000
  C   C30       1.0  0.96550  0.91990  0.32750  1.0000
  H   H18       1.0  0.91830  0.92435  0.34930  1.0000
  C   C31       1.0  0.86830  0.90000  0.23290  1.0000
  C   C32       1.0  0.08850  0.01850  0.42930  1.0000
  O   O10       1.0  0.86210  0.88650  0.17880  1.0000
  O   O11       1.0  0.80730  0.90750  0.26610  1.0000
  O   O12       1.0  0.16820  0.89370  0.17310  1.0000
  O   O13       1.0  0.04910  0.93720  0.41730  1.0000
  O   O14       1.0  0.24710  0.91290  0.25750  1.0000
  H   H19       1.0  0.60742  0.48147  0.83951  1.0000
  C   C33       1.0  0.67480  0.59570  0.72570  1.0000
  C   C34       1.0  0.56480  0.45420  0.97500  1.0000
  H   H20       1.0  0.56541  0.46650  0.01513  1.0000
  C   C35       1.0  0.45450  0.59290  0.76480  1.0000
  C   C36       1.0  0.53980  0.40910  0.96440  1.0000
  H   H21       1.0  0.52358  0.39060  0.99689  1.0000
  C   C37       1.0  0.46550  0.58010  0.82750  1.0000
  H   H22       1.0  0.41830  0.57565  0.84930  1.0000
  C   C38       1.0  0.36830  0.60000  0.73290  1.0000
  C   C39       1.0  0.58850  0.48150  0.92930  1.0000
  O   O15       1.0  0.36210  0.61350  0.67880  1.0000
  O   O16       1.0  0.30730  0.59250  0.76610  1.0000
  O   O17       1.0  0.66820  0.60630  0.67310  1.0000
  O   O18       1.0  0.54910  0.56280  0.91730  1.0000
  O   O19       1.0  0.74710  0.58710  0.75750  1.0000
  O   O20       1.0  0.51560  0.31570  0.94240  1.0000
  O   O21       1.0  0.50170  0.32740  0.84110  1.0000
  C   C40       1.0  0.59990  0.58870  0.76200  1.0000
  C   C41       1.0  0.61300  0.53090  0.94150  1.0000
  H   H23       1.0  0.66498  0.53752  0.92283  1.0000
  H   H24       1.0  0.62422  0.53567  0.98624  1.0000
  C   C42       1.0  0.51760  0.33950  0.89660  1.0000
  C   C43       1.0  0.54150  0.57440  0.85610  1.0000
  C   C44       1.0  0.53850  0.39070  0.90500  1.0000
  C   C45       1.0  0.52350  0.59810  0.73340  1.0000
  H   H25       1.0  0.51758  0.60818  0.69200  1.0000
  C   C46       1.0  0.56070  0.41810  0.85830  1.0000
  H   H26       1.0  0.55734  0.40655  0.81758  1.0000
  C   C47       1.0  0.60960  0.57780  0.82320  1.0000
  H   H27       1.0  0.66383  0.57256  0.84302  1.0000
  C   C48       1.0  0.58840  0.46320  0.87120  1.0000
  O   O22       1.0  0.13790  0.11350  0.82120  1.0000
  O   O23       1.0  0.19270  0.09250  0.73390  1.0000
  O   O24       1.0  0.83180  0.10630  0.82690  1.0000
  O   O25       1.0  0.95090  0.06280  0.58270  1.0000
  O   O26       1.0  0.75290  0.08710  0.74250  1.0000
  O   O27       1.0  0.98440  0.81570  0.55760  1.0000
  O   O28       1.0  0.99830  0.82740  0.65890  1.0000
  C   C49       1.0  0.90010  0.08870  0.73800  1.0000
  C   C50       1.0  0.88700  0.03090  0.55850  1.0000
  H   H28       1.0  0.83502  0.03752  0.57717  1.0000
  H   H29       1.0  0.87578  0.03567  0.51376  1.0000
  C   C51       1.0  0.98240  0.83950  0.60340  1.0000
  C   C52       1.0  0.95850  0.07440  0.64390  1.0000
  C   C53       1.0  0.96150  0.89070  0.59500  1.0000
  C   C54       1.0  0.97650  0.09810  0.76660  1.0000
  H   H30       1.0  0.98242  0.10818  0.80800  1.0000
  C   C55       1.0  0.93930  0.91810  0.64170  1.0000
  H   H31       1.0  0.94266  0.90655  0.68242  1.0000
  C   C56       1.0  0.89040  0.07780  0.67680  1.0000
  H   H32       1.0  0.83617  0.07256  0.65698  1.0000
  C   C57       1.0  0.91160  0.96320  0.62880  1.0000
  H   H33       1.0  0.89258  0.98147  0.66049  1.0000
  C   C58       1.0  0.82520  0.09570  0.77430  1.0000
  C   C59       1.0  0.93520  0.95420  0.52500  1.0000
  H   H34       1.0  0.93459  0.96650  0.48488  1.0000
  C   C60       1.0  0.04550  0.09290  0.73520  1.0000
  C   C61       1.0  0.96020  0.90910  0.53560  1.0000
  H   H35       1.0  0.97642  0.89060  0.50311  1.0000
  C   C62       1.0  0.03450  0.08010  0.67250  1.0000
  H   H36       1.0  0.08170  0.07565  0.65070  1.0000
  C   C63       1.0  0.13170  0.10000  0.76710  1.0000
  C   C64       1.0  0.91150  0.98150  0.57070  1.0000
  O   O29       1.0  0.98770  0.34170  0.32010  1.0000
  O   O30       1.0  0.98670  0.42400  0.36270  1.0000
  P   P1        1.0  0.99136  0.37158  0.37988  1.0000
  O   O31       1.0  0.07620  0.36140  0.41850  1.0000
  O   O32       1.0  0.91640  0.35900  0.41520  1.0000
  O   O33       1.0  0.51230  0.84170  0.17990  1.0000
  P   P2        1.0  0.50864  0.87158  0.12012  1.0000
  O   O34       1.0  0.42380  0.86140  0.08150  1.0000
  O   O35       1.0  0.51330  0.92400  0.13730  1.0000
  O   O36       1.0  0.58360  0.85900  0.08480  1.0000
  P   P3        1.0  0.00864  0.62842  0.62012  1.0000
  O   O37       1.0  0.92380  0.63860  0.58150  1.0000
  O   O38       1.0  0.01330  0.57600  0.63730  1.0000
  O   O39       1.0  0.08360  0.64100  0.58480  1.0000
  O   O40       1.0  0.01230  0.65830  0.67990  1.0000
  O   O41       1.0  0.48670  0.07600  0.86270  1.0000
  O   O42       1.0  0.57620  0.13860  0.91850  1.0000
  O   O43       1.0  0.41640  0.14100  0.91520  1.0000
  O   O44       1.0  0.48770  0.15830  0.82010  1.0000
  P   P4        1.0  0.49136  0.12842  0.87988  1.0000
  Mo  Mo1       1.0  0.09586  0.48587  0.39226  1.0000
  Mo  Mo2       1.0  0.87466  0.28155  0.28867  1.0000
  Mo  Mo3       1.0  0.97422  0.36249  0.20756  1.0000
  Mo  Mo4       1.0  0.80555  0.41647  0.44661  1.0000
  Mo  Mo5       1.0  0.09753  0.28416  0.29186  1.0000
  Mo  Mo6       1.0  0.80423  0.29976  0.38789  1.0000
  Mo  Mo7       1.0  0.10865  0.33231  0.52808  1.0000
  Mo  Mo8       1.0  0.18864  0.42253  0.45119  1.0000
  Mo  Mo9       1.0  0.18779  0.30556  0.39323  1.0000
  Mo  Mo10      1.0  0.87831  0.48255  0.39011  1.0000
  Mo  Mo11      1.0  0.91144  0.32821  0.52544  1.0000
  Mo  Mo12      1.0  0.97245  0.46601  0.25835  1.0000
  Zn  Zn1       1.0  0.15782  0.40301  0.28604  1.0000
  Zn  Zn2       1.0  0.00244  0.25057  0.43072  1.0000
  Zn  Zn3       1.0  0.00504  0.43895  0.52681  1.0000
  Zn  Zn4       1.0  0.80032  0.39819  0.28054  1.0000
  O   O45       1.0  0.98740  0.51620  0.40600  1.0000
  O   O46       1.0  0.06150  0.32160  0.21770  1.0000
  O   O47       1.0  0.80540  0.33330  0.31060  1.0000
  O   O48       1.0  0.00950  0.29320  0.49970  1.0000
  O   O49       1.0  0.08880  0.45570  0.47030  1.0000
  O   O50       1.0  0.16570  0.43650  0.36400  1.0000
  O   O51       1.0  0.25000  0.36590  0.42080  1.0000
  O   O52       1.0  0.90650  0.45320  0.46990  1.0000
  O   O53       1.0  0.90180  0.26350  0.37480  1.0000
  O   O54       1.0  0.89160  0.31910  0.21390  1.0000
  O   O55       1.0  0.84320  0.37850  0.52060  1.0000
  O   O56       1.0  0.74040  0.35740  0.41360  1.0000
  O   O57       1.0  0.16890  0.29630  0.48090  1.0000
  O   O58       1.0  0.04820  0.41360  0.24180  1.0000
  O   O59       1.0  0.16990  0.38410  0.52470  1.0000
  O   O60       1.0  0.89180  0.49150  0.29960  1.0000
  O   O61       1.0  0.09260  0.26580  0.37650  1.0000
  O   O62       1.0  0.80780  0.43210  0.35940  1.0000
  O   O63       1.0  0.84320  0.28970  0.47630  1.0000
  O   O64       1.0  0.16770  0.33730  0.31520  1.0000
  O   O65       1.0  0.98860  0.24910  0.27600  1.0000
  O   O66       1.0  0.05990  0.49340  0.30210  1.0000
  O   O67       1.0  0.89910  0.40960  0.23790  1.0000
  O   O68       1.0  0.00910  0.37160  0.53880  1.0000
  Mo  Mo13      1.0  0.40414  0.98587  0.10774  1.0000
  Mo  Mo14      1.0  0.62534  0.78155  0.21133  1.0000
  Mo  Mo15      1.0  0.52578  0.86249  0.29244  1.0000
  Mo  Mo16      1.0  0.69445  0.91647  0.05339  1.0000
  Mo  Mo17      1.0  0.40247  0.78416  0.20814  1.0000
  Mo  Mo18      1.0  0.69577  0.79976  0.11211  1.0000
  Mo  Mo19      1.0  0.39135  0.83231  0.97192  1.0000
  Mo  Mo20      1.0  0.31136  0.92253  0.04881  1.0000
  Mo  Mo21      1.0  0.31221  0.80556  0.10677  1.0000
  Mo  Mo22      1.0  0.62169  0.98255  0.10989  1.0000
  Mo  Mo23      1.0  0.58856  0.82821  0.97456  1.0000
  Mo  Mo24      1.0  0.52755  0.96601  0.24165  1.0000
  Zn  Zn5       1.0  0.34218  0.90301  0.21396  1.0000
  Zn  Zn6       1.0  0.49756  0.75057  0.06928  1.0000
  Zn  Zn7       1.0  0.49496  0.93895  0.97319  1.0000
  Zn  Zn8       1.0  0.69968  0.89819  0.21946  1.0000
  O   O69       1.0  0.51260  0.01620  0.09400  1.0000
  O   O70       1.0  0.43850  0.82160  0.28230  1.0000
  O   O71       1.0  0.69460  0.83330  0.18940  1.0000
  O   O72       1.0  0.49050  0.79320  0.00030  1.0000
  O   O73       1.0  0.41120  0.95570  0.02970  1.0000
  O   O74       1.0  0.33430  0.93650  0.13600  1.0000
  O   O75       1.0  0.25000  0.86590  0.07920  1.0000
  O   O76       1.0  0.59350  0.95320  0.03010  1.0000
  O   O77       1.0  0.59820  0.76350  0.12520  1.0000
  O   O78       1.0  0.60840  0.81910  0.28610  1.0000
  O   O79       1.0  0.65680  0.87850  0.97940  1.0000
  O   O80       1.0  0.75960  0.85740  0.08640  1.0000
  O   O81       1.0  0.33110  0.79630  0.01910  1.0000
  O   O82       1.0  0.45180  0.91360  0.25820  1.0000
  O   O83       1.0  0.33010  0.88410  0.97530  1.0000
  O   O84       1.0  0.60820  0.99150  0.20040  1.0000
  O   O85       1.0  0.40740  0.76580  0.12350  1.0000
  O   O86       1.0  0.69220  0.93210  0.14060  1.0000
  O   O87       1.0  0.65680  0.78970  0.02370  1.0000
  O   O88       1.0  0.33230  0.83730  0.18480  1.0000
  O   O89       1.0  0.51140  0.74910  0.22400  1.0000
  O   O90       1.0  0.44010  0.99340  0.19790  1.0000
  O   O91       1.0  0.60090  0.90960  0.26210  1.0000
  O   O92       1.0  0.49090  0.87160  0.96120  1.0000
  Mo  Mo25      1.0  0.90414  0.51413  0.60774  1.0000
  Mo  Mo26      1.0  0.12534  0.71845  0.71133  1.0000
  Mo  Mo27      1.0  0.02578  0.63751  0.79244  1.0000
  Mo  Mo28      1.0  0.19445  0.58353  0.55339  1.0000
  Mo  Mo29      1.0  0.90247  0.71584  0.70814  1.0000
  Mo  Mo30      1.0  0.19577  0.70024  0.61211  1.0000
  Mo  Mo31      1.0  0.89135  0.66769  0.47192  1.0000
  Mo  Mo32      1.0  0.81136  0.57747  0.54881  1.0000
  Mo  Mo33      1.0  0.81221  0.69444  0.60677  1.0000
  Mo  Mo34      1.0  0.12169  0.51745  0.60989  1.0000
  Mo  Mo35      1.0  0.08856  0.67179  0.47456  1.0000
  Mo  Mo36      1.0  0.02755  0.53399  0.74165  1.0000
  Zn  Zn9       1.0  0.84218  0.59699  0.71396  1.0000
  Zn  Zn10      1.0  0.99756  0.74943  0.56928  1.0000
  Zn  Zn11      1.0  0.99496  0.56105  0.47319  1.0000
  Zn  Zn12      1.0  0.19968  0.60181  0.71946  1.0000
  O   O93       1.0  0.01260  0.48380  0.59400  1.0000
  O   O94       1.0  0.93850  0.67840  0.78230  1.0000
  O   O95       1.0  0.19460  0.66670  0.68940  1.0000
  O   O96       1.0  0.99050  0.70680  0.50030  1.0000
  O   O97       1.0  0.91120  0.54430  0.52970  1.0000
  O   O98       1.0  0.83430  0.56350  0.63600  1.0000
  O   O99       1.0  0.75000  0.63410  0.57920  1.0000
  O   O100      1.0  0.09350  0.54680  0.53010  1.0000
  O   O101      1.0  0.09820  0.73650  0.62520  1.0000
  O   O102      1.0  0.10840  0.68090  0.78610  1.0000
  O   O103      1.0  0.15680  0.62150  0.47940  1.0000
  O   O104      1.0  0.25960  0.64260  0.58640  1.0000
  O   O105      1.0  0.83110  0.70370  0.51910  1.0000
  O   O106      1.0  0.95180  0.58640  0.75820  1.0000
  O   O107      1.0  0.83010  0.61590  0.47530  1.0000
  O   O108      1.0  0.10820  0.50850  0.70040  1.0000
  O   O109      1.0  0.90740  0.73420  0.62350  1.0000
  O   O110      1.0  0.19220  0.56790  0.64060  1.0000
  O   O111      1.0  0.15680  0.71030  0.52370  1.0000
  O   O112      1.0  0.83230  0.66270  0.68480  1.0000
  O   O113      1.0  0.01140  0.75090  0.72400  1.0000
  O   O114      1.0  0.94010  0.50660  0.69790  1.0000
  O   O115      1.0  0.10090  0.59040  0.76210  1.0000
  O   O116      1.0  0.99090  0.62840  0.46120  1.0000
  Mo  Mo37      1.0  0.59586  0.01413  0.89226  1.0000
  Mo  Mo38      1.0  0.37466  0.21845  0.78867  1.0000
  Mo  Mo39      1.0  0.47422  0.13751  0.70756  1.0000
  Mo  Mo40      1.0  0.30555  0.08353  0.94661  1.0000
  Mo  Mo41      1.0  0.59753  0.21584  0.79186  1.0000
  Mo  Mo42      1.0  0.30423  0.20024  0.88789  1.0000
  Mo  Mo43      1.0  0.60865  0.16769  0.02808  1.0000
  Mo  Mo44      1.0  0.68864  0.07747  0.95119  1.0000
  Mo  Mo45      1.0  0.68779  0.19444  0.89323  1.0000
  Mo  Mo46      1.0  0.37831  0.01745  0.89011  1.0000
  Mo  Mo47      1.0  0.41144  0.17179  0.02544  1.0000
  Mo  Mo48      1.0  0.47245  0.03399  0.75835  1.0000
  Zn  Zn13      1.0  0.65782  0.09699  0.78604  1.0000
  Zn  Zn14      1.0  0.50244  0.24943  0.93072  1.0000
  Zn  Zn15      1.0  0.50504  0.06105  0.02681  1.0000
  Zn  Zn16      1.0  0.30032  0.10181  0.78054  1.0000
  O   O117      1.0  0.48740  0.98380  0.90600  1.0000
  O   O118      1.0  0.56150  0.17840  0.71770  1.0000
  O   O119      1.0  0.30540  0.16670  0.81060  1.0000
  O   O120      1.0  0.50950  0.20680  0.99970  1.0000
  O   O121      1.0  0.58880  0.04430  0.97030  1.0000
  O   O122      1.0  0.66570  0.06350  0.86400  1.0000
  O   O123      1.0  0.75000  0.13410  0.92080  1.0000
  O   O124      1.0  0.40650  0.04680  0.96990  1.0000
  O   O125      1.0  0.40180  0.23650  0.87480  1.0000
  O   O126      1.0  0.39160  0.18090  0.71390  1.0000
  O   O127      1.0  0.34320  0.12150  0.02060  1.0000
  O   O128      1.0  0.24040  0.14260  0.91360  1.0000
  O   O129      1.0  0.66890  0.20370  0.98090  1.0000
  O   O130      1.0  0.54820  0.08640  0.74180  1.0000
  O   O131      1.0  0.66990  0.11590  0.02470  1.0000
  O   O132      1.0  0.39180  0.00850  0.79960  1.0000
  O   O133      1.0  0.59260  0.23420  0.87650  1.0000
  O   O134      1.0  0.30780  0.06790  0.85940  1.0000
  O   O135      1.0  0.34320  0.21030  0.97630  1.0000
  O   O136      1.0  0.66770  0.16270  0.81520  1.0000
  O   O137      1.0  0.48860  0.25090  0.77600  1.0000
  O   O138      1.0  0.55990  0.00660  0.80210  1.0000
  O   O139      1.0  0.39910  0.09040  0.73790  1.0000
  O   O140      1.0  0.50910  0.12840  0.03880  1.0000
