data_image0
_chemical_formula_structural       O6CHCHCHCHCHCHC2HC3HCHC2HC3HC4O6CHCHCHCHCHCHC2HC3HCHC2HC3HC4O4CHCHCHCHCHCHC2HC3HCHC2HC3HC4O8CHCHCHCHCHCHC2HC3HCHC2HC3HC4OCHOCHO4CHOCHOBa8
_chemical_formula_sum              "O32 C88 H48 Ba8"
_cell_length_a       11.4435
_cell_length_b       17.2735
_cell_length_c       14.1871
_cell_angle_alpha    90
_cell_angle_beta     92.302
_cell_angle_gamma    90

_space_group_name_H-M_alt    "P 1"
_space_group_IT_number       1

loop_
  _space_group_symop_operation_xyz
  'x, y, z'

loop_
  _atom_site_type_symbol
  _atom_site_label
  _atom_site_symmetry_multiplicity
  _atom_site_fract_x
  _atom_site_fract_y
  _atom_site_fract_z
  _atom_site_occupancy
  O   O1        1.0  0.60010  0.64081  0.26720  1.0000
  O   O2        1.0  0.66600  0.07365  0.23920  1.0000
  O   O3        1.0  0.61170  0.03755  0.38100  1.0000
  O   O4        1.0  0.64420  0.69558  0.13150  1.0000
  O   O5        1.0  0.64190  0.23787  0.18210  1.0000
  O   O6        1.0  0.57180  0.28542  0.04650  1.0000
  C   C1        1.0  0.84200  0.86050  0.21190  1.0000
  H   H1        1.0  0.90200  0.85390  0.16820  1.0000
  C   C2        1.0  0.04470  0.64610  0.26020  1.0000
  H   H2        1.0  0.12730  0.64350  0.26920  1.0000
  C   C3        1.0  0.77290  0.37160  0.22040  1.0000
  H   H3        1.0  0.79490  0.32560  0.25330  1.0000
  C   C4        1.0  0.78980  0.93260  0.22130  1.0000
  H   H4        1.0  0.81090  0.97420  0.18160  1.0000
  C   C5        1.0  0.67190  0.88180  0.34410  1.0000
  H   H5        1.0  0.61550  0.88920  0.39070  1.0000
  C   C6        1.0  0.98740  0.71590  0.27070  1.0000
  H   H6        1.0  0.03110  0.76080  0.28790  1.0000
  C   C7        1.0  0.79650  0.51010  0.19620  1.0000
  C   C8        1.0  0.70850  0.50600  0.12380  1.0000
  H   H7        1.0  0.68570  0.55170  0.09060  1.0000
  C   C9        1.0  0.65590  0.02400  0.30470  1.0000
  C   C10       1.0  0.86640  0.72130  0.25640  1.0000
  C   C11       1.0  0.98130  0.58010  0.23640  1.0000
  H   H8        1.0  0.02090  0.53210  0.23010  1.0000
  C   C12       1.0  0.72040  0.80850  0.33090  1.0000
  H   H9        1.0  0.69390  0.76590  0.36650  1.0000
  C   C13       1.0  0.85910  0.58320  0.22140  1.0000
  C   C14       1.0  0.65510  0.43650  0.10050  1.0000
  H   H10       1.0  0.59630  0.43490  0.05140  1.0000
  C   C15       1.0  0.80210  0.65400  0.23120  1.0000
  C   C16       1.0  0.80700  0.79740  0.26630  1.0000
  C   C17       1.0  0.82710  0.44140  0.24470  1.0000
  H   H11       1.0  0.88520  0.44270  0.29440  1.0000
  C   C18       1.0  0.62890  0.29270  0.12410  1.0000
  C   C19       1.0  0.68670  0.36850  0.14830  1.0000
  C   C20       1.0  0.67180  0.66350  0.20870  1.0000
  C   C21       1.0  0.70620  0.94400  0.28920  1.0000
  O   O7        1.0  0.39990  0.14081  0.23280  1.0000
  O   O8        1.0  0.33400  0.57365  0.26080  1.0000
  O   O9        1.0  0.38830  0.53755  0.11900  1.0000
  O   O10       1.0  0.35580  0.19558  0.36850  1.0000
  O   O11       1.0  0.35810  0.73787  0.31790  1.0000
  O   O12       1.0  0.42820  0.78542  0.45350  1.0000
  C   C22       1.0  0.15800  0.36050  0.28810  1.0000
  H   H12       1.0  0.09800  0.35390  0.33180  1.0000
  C   C23       1.0  0.95530  0.14610  0.23980  1.0000
  H   H13       1.0  0.87270  0.14350  0.23080  1.0000
  C   C24       1.0  0.22710  0.87160  0.27960  1.0000
  H   H14       1.0  0.20510  0.82560  0.24670  1.0000
  C   C25       1.0  0.21020  0.43260  0.27870  1.0000
  H   H15       1.0  0.18910  0.47420  0.31840  1.0000
  C   C26       1.0  0.32810  0.38180  0.15590  1.0000
  H   H16       1.0  0.38450  0.38920  0.10930  1.0000
  C   C27       1.0  0.01260  0.21590  0.22930  1.0000
  H   H17       1.0  0.96890  0.26080  0.21210  1.0000
  C   C28       1.0  0.20350  0.01010  0.30380  1.0000
  C   C29       1.0  0.29150  0.00600  0.37620  1.0000
  H   H18       1.0  0.31430  0.05170  0.40940  1.0000
  C   C30       1.0  0.34410  0.52400  0.19530  1.0000
  C   C31       1.0  0.13360  0.22130  0.24360  1.0000
  C   C32       1.0  0.01870  0.08010  0.26360  1.0000
  H   H19       1.0  0.97910  0.03210  0.26990  1.0000
  C   C33       1.0  0.27960  0.30850  0.16910  1.0000
  H   H20       1.0  0.30610  0.26590  0.13350  1.0000
  C   C34       1.0  0.14090  0.08320  0.27860  1.0000
  C   C35       1.0  0.34490  0.93650  0.39950  1.0000
  H   H21       1.0  0.40370  0.93490  0.44860  1.0000
  C   C36       1.0  0.19790  0.15400  0.26880  1.0000
  C   C37       1.0  0.19300  0.29740  0.23370  1.0000
  C   C38       1.0  0.17290  0.94140  0.25530  1.0000
  H   H22       1.0  0.11480  0.94270  0.20560  1.0000
  C   C39       1.0  0.37110  0.79270  0.37590  1.0000
  C   C40       1.0  0.31330  0.86850  0.35170  1.0000
  C   C41       1.0  0.32820  0.16350  0.29130  1.0000
  C   C42       1.0  0.29380  0.44400  0.21080  1.0000
  O   O13       1.0  0.38830  0.96245  0.61900  1.0000
  O   O14       1.0  0.35580  0.30442  0.86850  1.0000
  O   O15       1.0  0.35810  0.76213  0.81790  1.0000
  O   O16       1.0  0.42820  0.71458  0.95350  1.0000
  C   C43       1.0  0.15800  0.13950  0.78810  1.0000
  H   H23       1.0  0.09800  0.14610  0.83180  1.0000
  C   C44       1.0  0.95530  0.35390  0.73980  1.0000
  H   H24       1.0  0.87270  0.35650  0.73080  1.0000
  C   C45       1.0  0.22710  0.62840  0.77960  1.0000
  H   H25       1.0  0.20510  0.67440  0.74670  1.0000
  C   C46       1.0  0.21020  0.06740  0.77870  1.0000
  H   H26       1.0  0.18910  0.02580  0.81840  1.0000
  C   C47       1.0  0.32810  0.11820  0.65590  1.0000
  H   H27       1.0  0.38450  0.11080  0.60930  1.0000
  C   C48       1.0  0.01260  0.28410  0.72930  1.0000
  H   H28       1.0  0.96890  0.23920  0.71210  1.0000
  C   C49       1.0  0.20350  0.48990  0.80380  1.0000
  C   C50       1.0  0.29150  0.49400  0.87620  1.0000
  H   H29       1.0  0.31430  0.44830  0.90940  1.0000
  C   C51       1.0  0.34410  0.97600  0.69530  1.0000
  C   C52       1.0  0.13360  0.27870  0.74360  1.0000
  C   C53       1.0  0.01870  0.41990  0.76360  1.0000
  H   H30       1.0  0.97910  0.46790  0.76990  1.0000
  C   C54       1.0  0.27960  0.19150  0.66910  1.0000
  H   H31       1.0  0.30610  0.23410  0.63350  1.0000
  C   C55       1.0  0.14090  0.41680  0.77860  1.0000
  C   C56       1.0  0.34490  0.56350  0.89950  1.0000
  H   H32       1.0  0.40370  0.56510  0.94860  1.0000
  C   C57       1.0  0.19790  0.34600  0.76880  1.0000
  C   C58       1.0  0.19300  0.20260  0.73370  1.0000
  C   C59       1.0  0.17290  0.55860  0.75530  1.0000
  H   H33       1.0  0.11480  0.55730  0.70560  1.0000
  C   C60       1.0  0.37110  0.70730  0.87590  1.0000
  C   C61       1.0  0.31330  0.63150  0.85170  1.0000
  C   C62       1.0  0.32820  0.33650  0.79130  1.0000
  C   C63       1.0  0.29380  0.05600  0.71080  1.0000
  O   O17       1.0  0.39990  0.35919  0.73280  1.0000
  O   O18       1.0  0.33400  0.92635  0.76080  1.0000
  O   O19       1.0  0.60010  0.85919  0.76720  1.0000
  O   O20       1.0  0.66600  0.42635  0.73920  1.0000
  O   O21       1.0  0.61170  0.46245  0.88100  1.0000
  O   O22       1.0  0.64420  0.80442  0.63150  1.0000
  O   O23       1.0  0.64190  0.26213  0.68210  1.0000
  O   O24       1.0  0.57180  0.21458  0.54650  1.0000
  C   C64       1.0  0.84200  0.63950  0.71190  1.0000
  H   H34       1.0  0.90200  0.64610  0.66820  1.0000
  C   C65       1.0  0.04470  0.85390  0.76020  1.0000
  H   H35       1.0  0.12730  0.85650  0.76920  1.0000
  C   C66       1.0  0.77290  0.12840  0.72040  1.0000
  H   H36       1.0  0.79490  0.17440  0.75330  1.0000
  C   C67       1.0  0.78980  0.56740  0.72130  1.0000
  H   H37       1.0  0.81090  0.52580  0.68160  1.0000
  C   C68       1.0  0.67190  0.61820  0.84410  1.0000
  H   H38       1.0  0.61550  0.61080  0.89070  1.0000
  C   C69       1.0  0.98740  0.78410  0.77070  1.0000
  H   H39       1.0  0.03110  0.73920  0.78790  1.0000
  C   C70       1.0  0.79650  0.98990  0.69620  1.0000
  C   C71       1.0  0.70850  0.99400  0.62380  1.0000
  H   H40       1.0  0.68570  0.94830  0.59060  1.0000
  C   C72       1.0  0.65590  0.47600  0.80470  1.0000
  C   C73       1.0  0.86640  0.77870  0.75640  1.0000
  C   C74       1.0  0.98130  0.91990  0.73640  1.0000
  H   H41       1.0  0.02090  0.96790  0.73010  1.0000
  C   C75       1.0  0.72040  0.69150  0.83090  1.0000
  H   H42       1.0  0.69390  0.73410  0.86650  1.0000
  C   C76       1.0  0.85910  0.91680  0.72140  1.0000
  C   C77       1.0  0.65510  0.06350  0.60050  1.0000
  H   H43       1.0  0.59630  0.06510  0.55140  1.0000
  C   C78       1.0  0.80210  0.84600  0.73120  1.0000
  C   C79       1.0  0.80700  0.70260  0.76630  1.0000
  C   C80       1.0  0.82710  0.05860  0.74470  1.0000
  H   H44       1.0  0.88520  0.05730  0.79440  1.0000
  C   C81       1.0  0.62890  0.20730  0.62410  1.0000
  C   C82       1.0  0.68670  0.13150  0.64830  1.0000
  C   C83       1.0  0.67180  0.83650  0.70870  1.0000
  C   C84       1.0  0.70620  0.55600  0.78920  1.0000
  O   O25       1.0  0.57030  0.34811  0.38090  1.0000
  C   C85       1.0  0.54660  0.41490  0.35520  1.0000
  H   H45       1.0  0.52840  0.42380  0.29020  1.0000
  O   O26       1.0  0.48900  0.46080  0.40600  1.0000
  C   C86       1.0  0.45340  0.91490  0.14480  1.0000
  H   H46       1.0  0.47160  0.92380  0.20980  1.0000
  O   O27       1.0  0.51100  0.96080  0.09400  1.0000
  O   O28       1.0  0.42970  0.84811  0.11910  1.0000
  O   O29       1.0  0.51100  0.53920  0.59400  1.0000
  O   O30       1.0  0.42970  0.65189  0.61910  1.0000
  C   C87       1.0  0.45340  0.58510  0.64480  1.0000
  H   H47       1.0  0.47160  0.57620  0.70980  1.0000
  O   O31       1.0  0.57030  0.15189  0.88090  1.0000
  C   C88       1.0  0.54660  0.08510  0.85520  1.0000
  H   H48       1.0  0.52840  0.07620  0.79020  1.0000
  O   O32       1.0  0.48900  0.03920  0.90600  1.0000
  Ba  Ba1       1.0  0.59252  0.19523  0.35759  1.0000
  Ba  Ba2       1.0  0.46503  0.61700  0.41996  1.0000
  Ba  Ba3       1.0  0.59252  0.30477  0.85759  1.0000
  Ba  Ba4       1.0  0.46503  0.88300  0.91996  1.0000
  Ba  Ba5       1.0  0.40748  0.80477  0.64241  1.0000
  Ba  Ba6       1.0  0.53497  0.38300  0.58004  1.0000
  Ba  Ba7       1.0  0.40748  0.69523  0.14241  1.0000
  Ba  Ba8       1.0  0.53497  0.11700  0.08004  1.0000
