data_image0
_chemical_formula_structural       ONCHCHC2HCHCHCHCNHNHC2HCHC2HCHONHC3HCHC2HCHONCHCHC2HCHCHCHCHCHCNHNHC2HCHC2HCHONHC3HCHC2HCHONCHCHC2HCHCHCHCONCHCHC2HCHCHCHCHCHCONCHCHC2HCHCHCHCNHNHC2HCHC2HCHONHC3HCHC2HCHONCHCHC2ONCHCHC2HCHCHCHCNHNHC2HCHC2HCHONHC3HCHC2HCHONCHCHC2HCHCHCHCO3C2HCHC2HCHCO2C2HCHC2HCHCO3C2HCHC2HCHCO2C2HCHC2HCHCO3C2HCHC2HCHCO2C2HCHC2HCHCO3C2HCHC2HCHCO2C2HCHC2HCHCCo4
_chemical_formula_sum              "O32 N20 C172 H124 Co4"
_cell_length_a       23.803
_cell_length_b       9.7214
_cell_length_c       23.932
_cell_angle_alpha    90
_cell_angle_beta     103.862
_cell_angle_gamma    90

_space_group_name_H-M_alt    "P 1"
_space_group_IT_number       1

loop_
  _space_group_symop_operation_xyz
  'x, y, z'

loop_
  _atom_site_type_symbol
  _atom_site_label
  _atom_site_symmetry_multiplicity
  _atom_site_fract_x
  _atom_site_fract_y
  _atom_site_fract_z
  _atom_site_occupancy
  O   O1        1.0  0.81783  0.84680  0.66162  1.0000
  N   N1        1.0  0.02184  0.26000  0.55647  1.0000
  C   C1        1.0  0.98582  0.17210  0.52351  1.0000
  H   H1        1.0  0.98670  0.16500  0.48500  1.0000
  C   C2        1.0  0.94759  0.09150  0.54300  1.0000
  H   H2        1.0  0.92400  0.03040  0.51800  1.0000
  C   C3        1.0  0.94367  0.10010  0.59987  1.0000
  C   C4        1.0  0.98040  0.19050  0.63363  1.0000
  H   H3        1.0  0.98010  0.19980  0.67220  1.0000
  C   C5        1.0  0.01793  0.26850  0.61107  1.0000
  H   H4        1.0  0.04190  0.33040  0.63520  1.0000
  C   C6        1.0  0.90248  0.01690  0.62227  1.0000
  H   H5        1.0  0.89990  0.03260  0.65990  1.0000
  C   C7        1.0  0.86938  0.92270  0.59290  1.0000
  H   H6        1.0  0.87380  0.90480  0.55600  1.0000
  C   C8        1.0  0.82500  0.84060  0.61280  1.0000
  N   N2        1.0  0.79472  0.75950  0.57188  1.0000
  H   H7        1.0  0.80600  0.76020  0.54030  1.0000
  N   N3        1.0  0.60290  0.40930  0.55460  1.0000
  H   H8        1.0  0.59640  0.38290  0.58680  1.0000
  C   C9        1.0  0.74693  0.67190  0.57130  1.0000
  C   C10       1.0  0.72160  0.61190  0.52100  1.0000
  H   H9        1.0  0.73620  0.63090  0.48910  1.0000
  C   C11       1.0  0.67530  0.52420  0.51400  1.0000
  H   H10       1.0  0.65950  0.48410  0.47850  1.0000
  C   C12       1.0  0.65310  0.49740  0.55970  1.0000
  C   C13       1.0  0.67870  0.55510  0.61190  1.0000
  H   H11       1.0  0.66390  0.53550  0.64370  1.0000
  C   C14       1.0  0.72610  0.64220  0.61850  1.0000
  H   H12       1.0  0.74340  0.67950  0.65430  1.0000
  O   O2        1.0  0.57410  0.40210  0.45030  1.0000
  N   N4        1.0  0.38231  0.00070  0.50550  1.0000
  H   H13       1.0  0.38360  0.96000  0.53770  1.0000
  C   C15       1.0  0.56820  0.36650  0.51120  1.0000
  C   C16       1.0  0.51920  0.27710  0.50930  1.0000
  C   C17       1.0  0.47580  0.26840  0.46240  1.0000
  H   H14       1.0  0.47700  0.32320  0.43080  1.0000
  C   C18       1.0  0.42880  0.18050  0.45870  1.0000
  H   H15       1.0  0.39890  0.17740  0.42560  1.0000
  C   C19       1.0  0.42750  0.09790  0.50550  1.0000
  C   C20       1.0  0.47140  0.10200  0.55560  1.0000
  H   H16       1.0  0.47100  0.04600  0.58700  1.0000
  C   C21       1.0  0.51720  0.19810  0.55590  1.0000
  H   H17       1.0  0.54670  0.20680  0.58920  1.0000
  O   O3        1.0  0.33210  0.00660  0.41400  1.0000
  N   N5        1.0  0.13033  0.54620  0.49163  1.0000
  C   C22       1.0  0.16426  0.62910  0.53017  1.0000
  H   H18       1.0  0.16130  0.62430  0.56820  1.0000
  C   C23       1.0  0.20318  0.72090  0.51720  1.0000
  H   H19       1.0  0.22560  0.77610  0.54570  1.0000
  C   C24       1.0  0.20850  0.73000  0.46080  1.0000
  C   C25       1.0  0.17272  0.64810  0.42070  1.0000
  H   H20       1.0  0.17400  0.65290  0.38220  1.0000
  C   C26       1.0  0.13454  0.55790  0.43795  1.0000
  H   H21       1.0  0.11080  0.50310  0.41010  1.0000
  C   C27       1.0  0.25060  0.82380  0.44460  1.0000
  H   H22       1.0  0.24330  0.85300  0.40660  1.0000
  C   C28       1.0  0.29740  0.86840  0.48010  1.0000
  H   H23       1.0  0.30560  0.83880  0.51810  1.0000
  C   C29       1.0  0.33870  0.96600  0.46190  1.0000
  H   H24       1.0  0.60010  0.53260  0.84010  1.0000
  C   C30       1.0  0.63062  0.42270  0.90710  1.0000
  H   H25       1.0  0.62620  0.40480  0.94400  1.0000
  C   C31       1.0  0.67500  0.34060  0.88720  1.0000
  N   N6        1.0  0.70528  0.25950  0.92812  1.0000
  H   H26       1.0  0.69400  0.26020  0.95970  1.0000
  N   N7        1.0  0.89710  0.90930  0.94540  1.0000
  H   H27       1.0  0.90360  0.88290  0.91320  1.0000
  C   C32       1.0  0.75307  0.17190  0.92870  1.0000
  C   C33       1.0  0.77840  0.11190  0.97900  1.0000
  H   H28       1.0  0.76380  0.13090  0.01090  1.0000
  C   C34       1.0  0.82470  0.02420  0.98600  1.0000
  H   H29       1.0  0.84050  0.98410  0.02150  1.0000
  C   C35       1.0  0.84690  0.99740  0.94030  1.0000
  C   C36       1.0  0.82130  0.05510  0.88810  1.0000
  H   H30       1.0  0.83610  0.03550  0.85630  1.0000
  C   C37       1.0  0.77390  0.14220  0.88150  1.0000
  H   H31       1.0  0.75660  0.17950  0.84570  1.0000
  O   O4        1.0  0.92590  0.90210  0.04970  1.0000
  N   N8        1.0  0.11769  0.50070  0.99450  1.0000
  H   H32       1.0  0.11640  0.46000  0.96230  1.0000
  C   C38       1.0  0.93180  0.86650  0.98880  1.0000
  C   C39       1.0  0.98080  0.77710  0.99070  1.0000
  C   C40       1.0  0.02420  0.76840  0.03760  1.0000
  H   H33       1.0  0.02300  0.82320  0.06920  1.0000
  C   C41       1.0  0.07120  0.68050  0.04130  1.0000
  H   H34       1.0  0.10110  0.67740  0.07440  1.0000
  C   C42       1.0  0.07250  0.59790  0.99450  1.0000
  C   C43       1.0  0.02860  0.60200  0.94440  1.0000
  H   H35       1.0  0.02900  0.54600  0.91300  1.0000
  C   C44       1.0  0.98280  0.69810  0.94410  1.0000
  H   H36       1.0  0.95330  0.70680  0.91080  1.0000
  O   O5        1.0  0.16790  0.50660  0.08600  1.0000
  N   N9        1.0  0.36967  0.04620  0.00837  1.0000
  C   C45       1.0  0.33574  0.12910  0.96983  1.0000
  H   H37       1.0  0.33870  0.12430  0.93180  1.0000
  C   C46       1.0  0.29682  0.22090  0.98280  1.0000
  H   H38       1.0  0.27440  0.27610  0.95430  1.0000
  C   C47       1.0  0.29150  0.23000  0.03920  1.0000
  C   C48       1.0  0.32728  0.14810  0.07930  1.0000
  H   H39       1.0  0.32600  0.15290  0.11780  1.0000
  C   C49       1.0  0.36546  0.05790  0.06205  1.0000
  H   H40       1.0  0.38920  0.00310  0.08990  1.0000
  C   C50       1.0  0.24940  0.32380  0.05540  1.0000
  H   H41       1.0  0.25670  0.35300  0.09340  1.0000
  C   C51       1.0  0.20260  0.36840  0.01990  1.0000
  H   H42       1.0  0.19440  0.33880  0.98190  1.0000
  C   C52       1.0  0.16130  0.46600  0.03810  1.0000
  O   O6        1.0  0.68217  0.34680  0.83838  1.0000
  N   N10       1.0  0.47816  0.76000  0.94353  1.0000
  C   C53       1.0  0.51418  0.67210  0.97649  1.0000
  H   H43       1.0  0.51330  0.66500  0.01500  1.0000
  C   C54       1.0  0.55241  0.59150  0.95700  1.0000
  H   H44       1.0  0.57600  0.53040  0.98200  1.0000
  C   C55       1.0  0.55633  0.60010  0.90013  1.0000
  C   C56       1.0  0.51960  0.69050  0.86637  1.0000
  H   H45       1.0  0.51990  0.69980  0.82780  1.0000
  C   C57       1.0  0.48207  0.76850  0.88893  1.0000
  H   H46       1.0  0.45810  0.83040  0.86480  1.0000
  C   C58       1.0  0.59752  0.51690  0.87773  1.0000
  H   H47       1.0  0.82600  0.34710  0.61780  1.0000
  C   C59       1.0  0.86546  0.44210  0.56205  1.0000
  H   H48       1.0  0.88920  0.49690  0.58990  1.0000
  C   C60       1.0  0.74940  0.17620  0.55540  1.0000
  H   H49       1.0  0.75670  0.14700  0.59340  1.0000
  C   C61       1.0  0.70260  0.13160  0.51990  1.0000
  H   H50       1.0  0.69440  0.16120  0.48190  1.0000
  C   C62       1.0  0.66130  0.03400  0.53810  1.0000
  O   O7        1.0  0.18217  0.15320  0.33838  1.0000
  N   N11       1.0  0.97816  0.74000  0.44353  1.0000
  C   C63       1.0  0.01418  0.82790  0.47649  1.0000
  H   H51       1.0  0.01330  0.83500  0.51500  1.0000
  C   C64       1.0  0.05241  0.90850  0.45700  1.0000
  H   H52       1.0  0.07600  0.96960  0.48200  1.0000
  C   C65       1.0  0.05633  0.89990  0.40013  1.0000
  C   C66       1.0  0.01960  0.80950  0.36637  1.0000
  H   H53       1.0  0.01990  0.80020  0.32780  1.0000
  C   C67       1.0  0.98207  0.73150  0.38893  1.0000
  H   H54       1.0  0.95810  0.66960  0.36480  1.0000
  C   C68       1.0  0.09752  0.98310  0.37773  1.0000
  H   H55       1.0  0.10010  0.96740  0.34010  1.0000
  C   C69       1.0  0.13062  0.07730  0.40710  1.0000
  H   H56       1.0  0.12620  0.09520  0.44400  1.0000
  C   C70       1.0  0.17500  0.15940  0.38720  1.0000
  N   N12       1.0  0.20528  0.24050  0.42812  1.0000
  H   H57       1.0  0.19400  0.23980  0.45970  1.0000
  N   N13       1.0  0.39710  0.59070  0.44540  1.0000
  H   H58       1.0  0.40360  0.61710  0.41320  1.0000
  C   C71       1.0  0.25307  0.32810  0.42870  1.0000
  C   C72       1.0  0.27840  0.38810  0.47900  1.0000
  H   H59       1.0  0.26380  0.36910  0.51090  1.0000
  C   C73       1.0  0.32470  0.47580  0.48600  1.0000
  H   H60       1.0  0.34050  0.51590  0.52150  1.0000
  C   C74       1.0  0.34690  0.50260  0.44030  1.0000
  C   C75       1.0  0.32130  0.44490  0.38810  1.0000
  H   H61       1.0  0.33610  0.46450  0.35630  1.0000
  C   C76       1.0  0.27390  0.35780  0.38150  1.0000
  H   H62       1.0  0.25660  0.32050  0.34570  1.0000
  O   O8        1.0  0.42590  0.59790  0.54970  1.0000
  N   N14       1.0  0.61769  0.99930  0.49450  1.0000
  H   H63       1.0  0.61640  0.04000  0.46230  1.0000
  C   C77       1.0  0.43180  0.63350  0.48880  1.0000
  C   C78       1.0  0.48080  0.72290  0.49070  1.0000
  C   C79       1.0  0.52420  0.73160  0.53760  1.0000
  H   H64       1.0  0.52300  0.67680  0.56920  1.0000
  C   C80       1.0  0.57120  0.81950  0.54130  1.0000
  H   H65       1.0  0.60110  0.82260  0.57440  1.0000
  C   C81       1.0  0.57250  0.90210  0.49450  1.0000
  C   C82       1.0  0.52860  0.89800  0.44440  1.0000
  H   H66       1.0  0.52900  0.95400  0.41300  1.0000
  C   C83       1.0  0.48280  0.80190  0.44410  1.0000
  H   H67       1.0  0.45330  0.79320  0.41080  1.0000
  O   O9        1.0  0.66790  0.99340  0.58600  1.0000
  N   N15       1.0  0.86967  0.45380  0.50837  1.0000
  C   C84       1.0  0.83574  0.37090  0.46983  1.0000
  H   H68       1.0  0.83870  0.37570  0.43180  1.0000
  C   C85       1.0  0.79682  0.27910  0.48280  1.0000
  H   H69       1.0  0.77440  0.22390  0.45430  1.0000
  C   C86       1.0  0.79150  0.27000  0.53920  1.0000
  C   C87       1.0  0.82728  0.35190  0.57930  1.0000
  O   O10       1.0  0.31783  0.65320  0.16162  1.0000
  N   N16       1.0  0.52184  0.24000  0.05647  1.0000
  C   C88       1.0  0.48582  0.32790  0.02351  1.0000
  H   H70       1.0  0.48670  0.33500  0.98500  1.0000
  C   C89       1.0  0.44759  0.40850  0.04300  1.0000
  H   H71       1.0  0.42400  0.46960  0.01800  1.0000
  C   C90       1.0  0.44367  0.39990  0.09987  1.0000
  C   C91       1.0  0.48040  0.30950  0.13363  1.0000
  H   H72       1.0  0.48010  0.30020  0.17220  1.0000
  C   C92       1.0  0.51793  0.23150  0.11107  1.0000
  H   H73       1.0  0.54190  0.16960  0.13520  1.0000
  C   C93       1.0  0.40248  0.48310  0.12227  1.0000
  H   H74       1.0  0.39990  0.46740  0.15990  1.0000
  C   C94       1.0  0.36938  0.57730  0.09290  1.0000
  H   H75       1.0  0.37380  0.59520  0.05600  1.0000
  C   C95       1.0  0.32500  0.65940  0.11280  1.0000
  N   N17       1.0  0.29472  0.74050  0.07188  1.0000
  H   H76       1.0  0.30600  0.73980  0.04030  1.0000
  N   N18       1.0  0.10290  0.09070  0.05460  1.0000
  H   H77       1.0  0.09640  0.11710  0.08680  1.0000
  C   C96       1.0  0.24693  0.82810  0.07130  1.0000
  C   C97       1.0  0.22160  0.88810  0.02100  1.0000
  H   H78       1.0  0.23620  0.86910  0.98910  1.0000
  C   C98       1.0  0.17530  0.97580  0.01400  1.0000
  H   H79       1.0  0.15950  0.01590  0.97850  1.0000
  C   C99       1.0  0.15310  0.00260  0.05970  1.0000
  C   C100      1.0  0.17870  0.94490  0.11190  1.0000
  H   H80       1.0  0.16390  0.96450  0.14370  1.0000
  C   C101      1.0  0.22610  0.85780  0.11850  1.0000
  H   H81       1.0  0.24340  0.82050  0.15430  1.0000
  O   O11       1.0  0.07410  0.09790  0.95030  1.0000
  N   N19       1.0  0.88231  0.49930  0.00550  1.0000
  H   H82       1.0  0.88360  0.54000  0.03770  1.0000
  C   C102      1.0  0.06820  0.13350  0.01120  1.0000
  C   C103      1.0  0.01920  0.22290  0.00930  1.0000
  C   C104      1.0  0.97580  0.23160  0.96240  1.0000
  H   H83       1.0  0.97700  0.17680  0.93080  1.0000
  C   C105      1.0  0.92880  0.31950  0.95870  1.0000
  H   H84       1.0  0.89890  0.32260  0.92560  1.0000
  C   C106      1.0  0.92750  0.40210  0.00550  1.0000
  C   C107      1.0  0.97140  0.39800  0.05560  1.0000
  H   H85       1.0  0.97100  0.45400  0.08700  1.0000
  C   C108      1.0  0.01720  0.30190  0.05590  1.0000
  H   H86       1.0  0.04670  0.29320  0.08920  1.0000
  O   O12       1.0  0.83210  0.49340  0.91400  1.0000
  N   N20       1.0  0.63033  0.95380  0.99163  1.0000
  C   C109      1.0  0.66426  0.87090  0.03017  1.0000
  H   H87       1.0  0.66130  0.87570  0.06820  1.0000
  C   C110      1.0  0.70318  0.77910  0.01720  1.0000
  H   H88       1.0  0.72560  0.72390  0.04570  1.0000
  C   C111      1.0  0.70850  0.77000  0.96080  1.0000
  C   C112      1.0  0.67272  0.85190  0.92070  1.0000
  H   H89       1.0  0.67400  0.84710  0.88220  1.0000
  C   C113      1.0  0.63454  0.94210  0.93795  1.0000
  H   H90       1.0  0.61080  0.99690  0.91010  1.0000
  C   C114      1.0  0.75060  0.67620  0.94460  1.0000
  H   H91       1.0  0.74330  0.64700  0.90660  1.0000
  C   C115      1.0  0.79740  0.63160  0.98010  1.0000
  H   H92       1.0  0.80560  0.66120  0.01810  1.0000
  C   C116      1.0  0.83870  0.53400  0.96190  1.0000
  O   O13       1.0  0.09198  0.69980  0.82182  1.0000
  O   O14       1.0  0.34912  0.73810  0.97308  1.0000
  O   O15       1.0  0.35587  0.87220  0.90211  1.0000
  C   C117      1.0  0.26602  0.76180  0.89529  1.0000
  C   C118      1.0  0.23610  0.85170  0.85680  1.0000
  H   H93       1.0  0.25480  0.92820  0.84650  1.0000
  C   C119      1.0  0.17780  0.83200  0.83220  1.0000
  H   H94       1.0  0.15690  0.89660  0.80680  1.0000
  C   C120      1.0  0.15170  0.71820  0.84540  1.0000
  C   C121      1.0  0.18080  0.62130  0.88260  1.0000
  H   H95       1.0  0.16240  0.54180  0.89060  1.0000
  C   C122      1.0  0.23780  0.64470  0.90770  1.0000
  H   H96       1.0  0.25820  0.58080  0.93380  1.0000
  C   C123      1.0  0.32772  0.78940  0.92485  1.0000
  O   O16       1.0  0.04301  0.55930  0.55676  1.0000
  O   O17       1.0  0.95898  0.65170  0.56047  1.0000
  C   C124      1.0  0.03179  0.63920  0.64687  1.0000
  C   C125      1.0  0.99739  0.69600  0.67917  1.0000
  H   H97       1.0  0.95950  0.72040  0.66160  1.0000
  C   C126      1.0  0.01850  0.71740  0.73770  1.0000
  H   H98       1.0  0.99510  0.75630  0.75950  1.0000
  C   C127      1.0  0.07394  0.68070  0.76260  1.0000
  C   C128      1.0  0.10897  0.62210  0.73168  1.0000
  H   H99       1.0  0.14650  0.59600  0.74970  1.0000
  C   C129      1.0  0.08815  0.60220  0.67381  1.0000
  H   H100      1.0  0.11190  0.56360  0.65230  1.0000
  C   C130      1.0  0.00990  0.61390  0.58342  1.0000
  O   O18       1.0  0.40802  0.19980  0.67818  1.0000
  O   O19       1.0  0.15088  0.23810  0.52692  1.0000
  O   O20       1.0  0.14413  0.37220  0.59789  1.0000
  C   C131      1.0  0.23398  0.26180  0.60471  1.0000
  C   C132      1.0  0.26390  0.35170  0.64320  1.0000
  H   H101      1.0  0.24520  0.42820  0.65350  1.0000
  C   C133      1.0  0.32220  0.33200  0.66780  1.0000
  H   H102      1.0  0.34310  0.39660  0.69320  1.0000
  C   C134      1.0  0.34830  0.21820  0.65460  1.0000
  C   C135      1.0  0.31920  0.12130  0.61740  1.0000
  H   H103      1.0  0.33760  0.04180  0.60940  1.0000
  C   C136      1.0  0.26220  0.14470  0.59230  1.0000
  H   H104      1.0  0.24180  0.08080  0.56620  1.0000
  C   C137      1.0  0.17228  0.28940  0.57515  1.0000
  O   O21       1.0  0.45699  0.05930  0.94324  1.0000
  O   O22       1.0  0.54102  0.15170  0.93953  1.0000
  C   C138      1.0  0.46821  0.13920  0.85313  1.0000
  C   C139      1.0  0.50261  0.19600  0.82083  1.0000
  H   H105      1.0  0.54050  0.22040  0.83840  1.0000
  C   C140      1.0  0.48150  0.21740  0.76230  1.0000
  H   H106      1.0  0.50490  0.25630  0.74050  1.0000
  C   C141      1.0  0.42606  0.18070  0.73740  1.0000
  C   C142      1.0  0.39103  0.12210  0.76832  1.0000
  H   H107      1.0  0.35350  0.09600  0.75030  1.0000
  C   C143      1.0  0.41185  0.10220  0.82619  1.0000
  H   H108      1.0  0.38810  0.06360  0.84770  1.0000
  C   C144      1.0  0.49010  0.11390  0.91658  1.0000
  O   O23       1.0  0.90802  0.30020  0.17818  1.0000
  O   O24       1.0  0.65088  0.26190  0.02692  1.0000
  O   O25       1.0  0.64413  0.12780  0.09789  1.0000
  C   C145      1.0  0.73398  0.23820  0.10471  1.0000
  C   C146      1.0  0.76390  0.14830  0.14320  1.0000
  H   H109      1.0  0.74520  0.07180  0.15350  1.0000
  C   C147      1.0  0.82220  0.16800  0.16780  1.0000
  H   H110      1.0  0.84310  0.10340  0.19320  1.0000
  C   C148      1.0  0.84830  0.28180  0.15460  1.0000
  C   C149      1.0  0.81920  0.37870  0.11740  1.0000
  H   H111      1.0  0.83760  0.45820  0.10940  1.0000
  C   C150      1.0  0.76220  0.35530  0.09230  1.0000
  H   H112      1.0  0.74180  0.41920  0.06620  1.0000
  C   C151      1.0  0.67228  0.21060  0.07515  1.0000
  O   O26       1.0  0.95699  0.44070  0.44324  1.0000
  O   O27       1.0  0.04102  0.34830  0.43953  1.0000
  C   C152      1.0  0.96821  0.36080  0.35313  1.0000
  C   C153      1.0  0.00261  0.30400  0.32083  1.0000
  H   H113      1.0  0.04050  0.27960  0.33840  1.0000
  C   C154      1.0  0.98150  0.28260  0.26230  1.0000
  H   H114      1.0  0.00490  0.24370  0.24050  1.0000
  C   C155      1.0  0.92606  0.31930  0.23740  1.0000
  C   C156      1.0  0.89103  0.37790  0.26832  1.0000
  H   H115      1.0  0.85350  0.40400  0.25030  1.0000
  C   C157      1.0  0.91185  0.39780  0.32619  1.0000
  H   H116      1.0  0.88810  0.43640  0.34770  1.0000
  C   C158      1.0  0.99010  0.38610  0.41658  1.0000
  O   O28       1.0  0.59198  0.80020  0.32182  1.0000
  O   O29       1.0  0.84912  0.76190  0.47308  1.0000
  O   O30       1.0  0.85587  0.62780  0.40211  1.0000
  C   C159      1.0  0.76602  0.73820  0.39529  1.0000
  C   C160      1.0  0.73610  0.64830  0.35680  1.0000
  H   H117      1.0  0.75480  0.57180  0.34650  1.0000
  C   C161      1.0  0.67780  0.66800  0.33220  1.0000
  H   H118      1.0  0.65690  0.60340  0.30680  1.0000
  C   C162      1.0  0.65170  0.78180  0.34540  1.0000
  C   C163      1.0  0.68080  0.87870  0.38260  1.0000
  H   H119      1.0  0.66240  0.95820  0.39060  1.0000
  C   C164      1.0  0.73780  0.85530  0.40770  1.0000
  H   H120      1.0  0.75820  0.91920  0.43380  1.0000
  C   C165      1.0  0.82772  0.71060  0.42485  1.0000
  O   O31       1.0  0.54301  0.94070  0.05676  1.0000
  O   O32       1.0  0.45898  0.84830  0.06047  1.0000
  C   C166      1.0  0.53179  0.86080  0.14687  1.0000
  C   C167      1.0  0.49739  0.80400  0.17917  1.0000
  H   H121      1.0  0.45950  0.77960  0.16160  1.0000
  C   C168      1.0  0.51850  0.78260  0.23770  1.0000
  H   H122      1.0  0.49510  0.74370  0.25950  1.0000
  C   C169      1.0  0.57394  0.81930  0.26260  1.0000
  C   C170      1.0  0.60897  0.87790  0.23168  1.0000
  H   H123      1.0  0.64650  0.90400  0.24970  1.0000
  C   C171      1.0  0.58815  0.89780  0.17381  1.0000
  H   H124      1.0  0.61190  0.93640  0.15230  1.0000
  C   C172      1.0  0.50990  0.88610  0.08342  1.0000
  Co  Co1       1.0  0.07598  0.39842  0.52284  1.0000
  Co  Co2       1.0  0.57598  0.10158  0.02284  1.0000
  Co  Co3       1.0  0.42402  0.89842  0.97716  1.0000
  Co  Co4       1.0  0.92402  0.60158  0.47716  1.0000
