data_image0
_chemical_formula_structural       O2NCHCHC2HCHCHCHCNHC2HCHC2HCHCNHNHC2HCHC2HCHONCHCHC2HCHCHCHC2HC2HCHCNHNHC2HCHC2HCHONCHCHC2HCHCHCHCO2NCHCHC2HCHCHCHCNHC2HO4C7HCHC2HCHCH8O4C7HCHC2HCHCCo2
_chemical_formula_sum              "O14 N10 C82 H62 Co2"
_cell_length_a       9.774
_cell_length_b       13.183
_cell_length_c       22.52
_cell_angle_alpha    103.44
_cell_angle_beta     95.59
_cell_angle_gamma    96.68

_space_group_name_H-M_alt    "P 1"
_space_group_IT_number       1

loop_
  _space_group_symop_operation_xyz
  'x, y, z'

loop_
  _atom_site_type_symbol
  _atom_site_label
  _atom_site_symmetry_multiplicity
  _atom_site_fract_x
  _atom_site_fract_y
  _atom_site_fract_z
  _atom_site_occupancy
  O   O1        1.0  0.56713  0.15710  0.55456  1.0000
  O   O2        1.0  0.97739  0.87478  0.32558  1.0000
  N   N1        1.0  0.47688  0.90523  0.11927  1.0000
  C   C1        1.0  0.36607  0.82650  0.10720  1.0000
  H   H1        1.0  0.34932  0.76614  0.06456  1.0000
  C   C2        1.0  0.26926  0.82309  0.14848  1.0000
  H   H2        1.0  0.18404  0.75865  0.13758  1.0000
  C   C3        1.0  0.28101  0.90297  0.20251  1.0000
  C   C4        1.0  0.39119  0.98627  0.21296  1.0000
  H   H3        1.0  0.40434  0.05181  0.25288  1.0000
  C   C5        1.0  0.48891  0.98496  0.17129  1.0000
  H   H4        1.0  0.57403  0.04848  0.18125  1.0000
  C   C6        1.0  0.17644  0.89457  0.24562  1.0000
  H   H5        1.0  0.10005  0.82410  0.23354  1.0000
  C   C7        1.0  0.16919  0.96771  0.29730  1.0000
  H   H6        1.0  0.24110  0.04007  0.31027  1.0000
  C   C8        1.0  0.06043  0.95546  0.33753  1.0000
  N   N2        1.0  0.05070  0.04139  0.38902  1.0000
  H   H7        1.0  0.12103  0.11006  0.39457  1.0000
  C   C9        1.0  0.94223  0.04727  0.42833  1.0000
  C   C10       1.0  0.91341  0.14687  0.45817  1.0000
  H   H8        1.0  0.96929  0.21734  0.45019  1.0000
  C   C11       1.0  0.81238  0.15692  0.49814  1.0000
  H   H9        1.0  0.79255  0.23513  0.52005  1.0000
  C   C12       1.0  0.73807  0.06742  0.50992  1.0000
  C   C13       1.0  0.76765  0.96738  0.48044  1.0000
  H   H10       1.0  0.71185  0.89616  0.48729  1.0000
  C   C14       1.0  0.86921  0.95740  0.44051  1.0000
  H   H11       1.0  0.89210  0.87932  0.42106  1.0000
  C   C15       1.0  0.62775  0.08055  0.55115  1.0000
  N   N3        1.0  0.59246  0.00782  0.58419  1.0000
  H   H12       1.0  0.64170  0.94076  0.57849  1.0000
  N   N4        1.0  0.21433  0.02607  0.76328  1.0000
  H   H13       1.0  0.23677  0.09437  0.79915  1.0000
  C   C16       1.0  0.48880  0.01441  0.62596  1.0000
  C   C17       1.0  0.41838  0.92086  0.63437  1.0000
  H   H14       1.0  0.43875  0.84544  0.60817  1.0000
  C   C18       1.0  0.32450  0.92319  0.67756  1.0000
  H   H15       1.0  0.27964  0.84888  0.68475  1.0000
  C   C19       1.0  0.29750  0.02000  0.71319  1.0000
  C   C20       1.0  0.36866  0.11359  0.70496  1.0000
  H   H16       1.0  0.35397  0.18887  0.73345  1.0000
  C   C21       1.0  0.46404  0.11115  0.66236  1.0000
  H   H17       1.0  0.52202  0.18487  0.66019  1.0000
  O   O3        1.0  0.06670  0.87505  0.72486  1.0000
  N   N5        1.0  0.71875  0.90649  0.98906  1.0000
  C   C22       1.0  0.70434  0.81863  0.94106  1.0000
  H   H18       1.0  0.63826  0.74747  0.94070  1.0000
  C   C23       1.0  0.77311  0.81720  0.88972  1.0000
  H   H19       1.0  0.75572  0.74662  0.85232  1.0000
  C   C24       1.0  0.86287  0.90535  0.88664  1.0000
  C   C25       1.0  0.88349  0.99369  0.93708  1.0000
  H   H20       1.0  0.95194  0.06436  0.93720  1.0000
  C   C26       1.0  0.81376  0.99127  0.98856  1.0000
  H   H21       1.0  0.83624  0.05871  0.02754  1.0000
  C   C27       1.0  0.92978  0.90013  0.82978  1.0000
  H   H22       1.0  0.88346  0.83883  0.78947  1.0000
  C   C28       1.0  0.04501  0.96260  0.82581  1.0000
  H   H23       1.0  0.09536  0.02217  0.86566  1.0000
  C   C29       1.0  0.10941  0.95062  0.76811  1.0000
  C   C30       1.0  0.18762  0.84308  0.50186  1.0000
  H   H24       1.0  0.20745  0.76487  0.47995  1.0000
  C   C31       1.0  0.26193  0.93258  0.49008  1.0000
  C   C32       1.0  0.23235  0.03262  0.51956  1.0000
  H   H25       1.0  0.28815  0.10384  0.51271  1.0000
  C   C33       1.0  0.13079  0.04260  0.55949  1.0000
  H   H26       1.0  0.10790  0.12068  0.57894  1.0000
  C   C34       1.0  0.37225  0.91945  0.44885  1.0000
  N   N6        1.0  0.40754  0.99218  0.41581  1.0000
  H   H27       1.0  0.35830  0.05924  0.42151  1.0000
  N   N7        1.0  0.78567  0.97393  0.23672  1.0000
  H   H28       1.0  0.76323  0.90563  0.20085  1.0000
  C   C35       1.0  0.51120  0.98559  0.37404  1.0000
  C   C36       1.0  0.58162  0.07914  0.36563  1.0000
  H   H29       1.0  0.56125  0.15456  0.39183  1.0000
  C   C37       1.0  0.67550  0.07681  0.32244  1.0000
  H   H30       1.0  0.72036  0.15112  0.31525  1.0000
  C   C38       1.0  0.70250  0.98000  0.28681  1.0000
  C   C39       1.0  0.63134  0.88641  0.29504  1.0000
  H   H31       1.0  0.64603  0.81113  0.26655  1.0000
  C   C40       1.0  0.53596  0.88885  0.33764  1.0000
  H   H32       1.0  0.47798  0.81513  0.33981  1.0000
  O   O4        1.0  0.93330  0.12495  0.27514  1.0000
  N   N8        1.0  0.28125  0.09351  0.01094  1.0000
  C   C41       1.0  0.29566  0.18137  0.05894  1.0000
  H   H33       1.0  0.36174  0.25253  0.05930  1.0000
  C   C42       1.0  0.22689  0.18280  0.11028  1.0000
  H   H34       1.0  0.24428  0.25338  0.14768  1.0000
  C   C43       1.0  0.13713  0.09465  0.11336  1.0000
  C   C44       1.0  0.11651  0.00631  0.06292  1.0000
  H   H35       1.0  0.04806  0.93564  0.06280  1.0000
  C   C45       1.0  0.18624  0.00873  0.01144  1.0000
  H   H36       1.0  0.16376  0.94129  0.97246  1.0000
  C   C46       1.0  0.07022  0.09987  0.17022  1.0000
  H   H37       1.0  0.11654  0.16117  0.21053  1.0000
  C   C47       1.0  0.95499  0.03740  0.17419  1.0000
  H   H38       1.0  0.90464  0.97783  0.13434  1.0000
  C   C48       1.0  0.89059  0.04938  0.23189  1.0000
  O   O5        1.0  0.43287  0.84290  0.44544  1.0000
  O   O6        1.0  0.02261  0.12522  0.67442  1.0000
  N   N9        1.0  0.52312  0.09477  0.88073  1.0000
  C   C49       1.0  0.63393  0.17350  0.89280  1.0000
  H   H39       1.0  0.65068  0.23386  0.93544  1.0000
  C   C50       1.0  0.73074  0.17691  0.85152  1.0000
  H   H40       1.0  0.81596  0.24135  0.86242  1.0000
  C   C51       1.0  0.71899  0.09703  0.79749  1.0000
  C   C52       1.0  0.60881  0.01373  0.78704  1.0000
  H   H41       1.0  0.59566  0.94819  0.74712  1.0000
  C   C53       1.0  0.51109  0.01504  0.82871  1.0000
  H   H42       1.0  0.42597  0.95152  0.81875  1.0000
  C   C54       1.0  0.82356  0.10543  0.75438  1.0000
  H   H43       1.0  0.89995  0.17590  0.76646  1.0000
  C   C55       1.0  0.83081  0.03229  0.70270  1.0000
  H   H44       1.0  0.75890  0.95993  0.68973  1.0000
  C   C56       1.0  0.93957  0.04454  0.66247  1.0000
  N   N10       1.0  0.94930  0.95861  0.61098  1.0000
  H   H45       1.0  0.87897  0.88994  0.60543  1.0000
  C   C57       1.0  0.05777  0.95273  0.57167  1.0000
  C   C58       1.0  0.08659  0.85313  0.54183  1.0000
  H   H46       1.0  0.03071  0.78266  0.54981  1.0000
  O   O7        1.0  0.44479  0.91603  0.00627  1.0000
  O   O8        1.0  0.36785  0.94756  0.91906  1.0000
  O   O9        1.0  0.19915  0.20629  0.91985  1.0000
  O   O10       1.0  0.42281  0.23792  0.96224  1.0000
  C   C59       1.0  0.26159  0.43648  0.81687  1.0000
  C   C60       1.0  0.29576  0.54108  0.85156  1.0000
  C   C61       1.0  0.30643  0.62446  0.82244  1.0000
  C   C62       1.0  0.28083  0.60152  0.75786  1.0000
  C   C63       1.0  0.24471  0.49745  0.72322  1.0000
  C   C64       1.0  0.23403  0.41512  0.75260  1.0000
  C   C65       1.0  0.24740  0.34951  0.84755  1.0000
  H   H47       1.0  0.17163  0.28087  0.82556  1.0000
  C   C66       1.0  0.32802  0.35097  0.89950  1.0000
  H   H48       1.0  0.41311  0.41405  0.91880  1.0000
  C   C67       1.0  0.31052  0.26296  0.92854  1.0000
  C   C68       1.0  0.33764  0.73606  0.85739  1.0000
  H   H49       1.0  0.32326  0.79393  0.83113  1.0000
  C   C69       1.0  0.38070  0.76918  0.91815  1.0000
  H   H50       1.0  0.39640  0.71435  0.94603  1.0000
  C   C70       1.0  0.40369  0.88197  0.94907  1.0000
  H   H51       1.0  0.30822  0.55629  0.90110  1.0000
  H   H52       1.0  0.28755  0.66435  0.73417  1.0000
  H   H53       1.0  0.22420  0.48066  0.67354  1.0000
  H   H54       1.0  0.20504  0.33483  0.72523  1.0000
  H   H55       1.0  0.69178  0.44371  0.09890  1.0000
  H   H56       1.0  0.71245  0.33565  0.26583  1.0000
  H   H57       1.0  0.77580  0.51934  0.32646  1.0000
  H   H58       1.0  0.79496  0.66517  0.27477  1.0000
  O   O11       1.0  0.55521  0.08397  0.99373  1.0000
  O   O12       1.0  0.63215  0.05244  0.08094  1.0000
  O   O13       1.0  0.80085  0.79371  0.08015  1.0000
  O   O14       1.0  0.57719  0.76208  0.03776  1.0000
  C   C71       1.0  0.73841  0.56352  0.18313  1.0000
  C   C72       1.0  0.70424  0.45892  0.14844  1.0000
  C   C73       1.0  0.69357  0.37554  0.17756  1.0000
  C   C74       1.0  0.71917  0.39848  0.24214  1.0000
  C   C75       1.0  0.75529  0.50255  0.27678  1.0000
  C   C76       1.0  0.76597  0.58488  0.24740  1.0000
  C   C77       1.0  0.75260  0.65049  0.15245  1.0000
  H   H59       1.0  0.82837  0.71913  0.17444  1.0000
  C   C78       1.0  0.67198  0.64903  0.10050  1.0000
  H   H60       1.0  0.58689  0.58595  0.08120  1.0000
  C   C79       1.0  0.68948  0.73704  0.07146  1.0000
  C   C80       1.0  0.66236  0.26394  0.14261  1.0000
  H   H61       1.0  0.67674  0.20607  0.16887  1.0000
  C   C81       1.0  0.61930  0.23082  0.08185  1.0000
  H   H62       1.0  0.60360  0.28565  0.05397  1.0000
  C   C82       1.0  0.59631  0.11803  0.05093  1.0000
  Co  Co1       1.0  0.60031  0.90776  0.05603  1.0000
  Co  Co2       1.0  0.39969  0.09224  0.94397  1.0000
