data_image0
_chemical_formula_structural       N2O4CH3C2HCHCHC3HCHCHC2HCHC3H3N2O4CH3C2HCHCHC3HCHCHC2HCHC3H3CuO4W4O10W2O5W4O2CuO3SiO2CuO3WCuWO
_chemical_formula_sum              "N4 O38 C32 H28 Cu4 W12 Si1"
_cell_length_a       13.4738
_cell_length_b       14.0908
_cell_length_c       14.5183
_cell_angle_alpha    106.799
_cell_angle_beta     90.433
_cell_angle_gamma    112.88

_space_group_name_H-M_alt    "P 1"
_space_group_IT_number       1

loop_
  _space_group_symop_operation_xyz
  'x, y, z'

loop_
  _atom_site_type_symbol
  _atom_site_label
  _atom_site_symmetry_multiplicity
  _atom_site_fract_x
  _atom_site_fract_y
  _atom_site_fract_z
  _atom_site_occupancy
  N   N1        1.0  0.04080  0.51170  0.13740  1.0000
  N   N2        1.0  0.07830  0.43600  0.15170  1.0000
  O   O1        1.0  0.92190  0.79200  0.06320  1.0000
  O   O2        1.0  0.99360  0.64190  0.04840  1.0000
  O   O3        1.0  0.06810  0.23370  0.13210  1.0000
  O   O4        1.0  0.15150  0.11800  0.18600  1.0000
  C   C1        1.0  0.89100  0.88300  0.06800  1.0000
  H   H1        1.0  0.88240  0.88730  0.00390  1.0000
  H   H2        1.0  0.94610  0.94930  0.10910  1.0000
  H   H3        1.0  0.82310  0.87000  0.09400  1.0000
  C   C2        1.0  0.93870  0.77210  0.14900  1.0000
  C   C3        1.0  0.91150  0.82030  0.23760  1.0000
  H   H4        1.0  0.88480  0.87310  0.24260  1.0000
  C   C4        1.0  0.92410  0.78980  0.31850  1.0000
  H   H5        1.0  0.90690  0.82110  0.37840  1.0000
  C   C5        1.0  0.96390  0.70980  0.30460  1.0000
  H   H6        1.0  0.97720  0.69100  0.35830  1.0000
  C   C6        1.0  0.98490  0.65610  0.21500  1.0000
  C   C7        1.0  0.97270  0.68790  0.13480  1.0000
  C   C8        1.0  0.02380  0.57350  0.21400  1.0000
  H   H7        1.0  0.03740  0.56450  0.27310  1.0000
  C   C9        1.0  0.15690  0.46380  0.21820  1.0000
  H   H8        1.0  0.19350  0.53780  0.25040  1.0000
  C   C10       1.0  0.33020  0.38470  0.34680  1.0000
  H   H9        1.0  0.38820  0.41780  0.39660  1.0000
  C   C11       1.0  0.19310  0.39790  0.24730  1.0000
  C   C12       1.0  0.28490  0.44520  0.31600  1.0000
  H   H10       1.0  0.31730  0.52040  0.34240  1.0000
  C   C13       1.0  0.28660  0.27320  0.30110  1.0000
  H   H11       1.0  0.31700  0.23120  0.31930  1.0000
  C   C14       1.0  0.19840  0.22390  0.22860  1.0000
  C   C15       1.0  0.15290  0.28650  0.20140  1.0000
  C   C16       1.0  0.19400  0.05100  0.21100  1.0000
  H   H12       1.0  0.15080  0.97640  0.17460  1.0000
  H   H13       1.0  0.19350  0.06020  0.27930  1.0000
  H   H14       1.0  0.26770  0.07020  0.19690  1.0000
  N   N3        1.0  0.95920  0.48830  0.86260  1.0000
  N   N4        1.0  0.92170  0.56400  0.84830  1.0000
  O   O5        1.0  0.07810  0.20800  0.93680  1.0000
  O   O6        1.0  0.00640  0.35810  0.95160  1.0000
  O   O7        1.0  0.93190  0.76630  0.86790  1.0000
  O   O8        1.0  0.84850  0.88200  0.81400  1.0000
  C   C17       1.0  0.10900  0.11700  0.93200  1.0000
  H   H15       1.0  0.11760  0.11270  0.99610  1.0000
  H   H16       1.0  0.05390  0.05070  0.89090  1.0000
  H   H17       1.0  0.17690  0.13000  0.90600  1.0000
  C   C18       1.0  0.06130  0.22790  0.85100  1.0000
  C   C19       1.0  0.08850  0.17970  0.76240  1.0000
  H   H18       1.0  0.11520  0.12690  0.75740  1.0000
  C   C20       1.0  0.07590  0.21020  0.68150  1.0000
  H   H19       1.0  0.09310  0.17890  0.62160  1.0000
  C   C21       1.0  0.03610  0.29020  0.69540  1.0000
  H   H20       1.0  0.02280  0.30900  0.64170  1.0000
  C   C22       1.0  0.01510  0.34390  0.78500  1.0000
  C   C23       1.0  0.02730  0.31210  0.86520  1.0000
  C   C24       1.0  0.97620  0.42650  0.78600  1.0000
  H   H21       1.0  0.96260  0.43550  0.72690  1.0000
  C   C25       1.0  0.84310  0.53620  0.78180  1.0000
  H   H22       1.0  0.80650  0.46220  0.74960  1.0000
  C   C26       1.0  0.66980  0.61530  0.65320  1.0000
  H   H23       1.0  0.61180  0.58220  0.60340  1.0000
  C   C27       1.0  0.80690  0.60210  0.75270  1.0000
  C   C28       1.0  0.71510  0.55480  0.68400  1.0000
  H   H24       1.0  0.68270  0.47960  0.65760  1.0000
  C   C29       1.0  0.71340  0.72680  0.69890  1.0000
  H   H25       1.0  0.68300  0.76880  0.68070  1.0000
  C   C30       1.0  0.80160  0.77610  0.77140  1.0000
  C   C31       1.0  0.84710  0.71350  0.79860  1.0000
  C   C32       1.0  0.80600  0.94900  0.78900  1.0000
  H   H26       1.0  0.84920  0.02360  0.82540  1.0000
  H   H27       1.0  0.80650  0.93980  0.72070  1.0000
  H   H28       1.0  0.73230  0.92980  0.80310  1.0000
  Cu  Cu1       1.0  0.02360  0.29440  0.05271  1.0000
  O   O9        1.0  0.26990  0.76250  0.34090  1.0000
  O   O10       1.0  0.41750  0.00010  0.26070  1.0000
  O   O11       1.0  0.37470  0.92590  0.44460  1.0000
  O   O12       1.0  0.43720  0.81980  0.24750  1.0000
  W   W1        1.0  0.23981  0.00381  0.48317  1.0000
  W   W2        1.0  0.58914  0.86897  0.29222  1.0000
  W   W3        1.0  0.26476  0.76054  0.47139  1.0000
  W   W4        1.0  0.55772  0.11086  0.30800  1.0000
  O   O13       1.0  0.43100  0.07290  0.54530  1.0000
  O   O14       1.0  0.20980  0.86330  0.49710  1.0000
  O   O15       1.0  0.32760  0.14160  0.47730  1.0000
  O   O16       1.0  0.27900  0.06110  0.62210  1.0000
  O   O17       1.0  0.60980  0.99970  0.27460  1.0000
  O   O18       1.0  0.54800  0.75250  0.34750  1.0000
  O   O19       1.0  0.44990  0.89760  0.53270  1.0000
  O   O20       1.0  0.37260  0.70620  0.45190  1.0000
  O   O21       1.0  0.31040  0.80490  0.60570  1.0000
  O   O22       1.0  0.49600  0.19820  0.38130  1.0000
  W   W5        1.0  0.47442  0.24423  0.51811  1.0000
  W   W6        1.0  0.67394  0.13337  0.72305  1.0000
  O   O23       1.0  0.74710  0.05570  0.65030  1.0000
  O   O24       1.0  0.56280  0.18020  0.75250  1.0000
  O   O25       1.0  0.73010  0.23750  0.65910  1.0000
  O   O26       1.0  0.58250  0.99990  0.73930  1.0000
  O   O27       1.0  0.62530  0.07410  0.55540  1.0000
  W   W7        1.0  0.76019  0.99619  0.51683  1.0000
  W   W8        1.0  0.41086  0.13103  0.70778  1.0000
  W   W9        1.0  0.73524  0.23946  0.52861  1.0000
  W   W10       1.0  0.44228  0.88914  0.69200  1.0000
  O   O28       1.0  0.56900  0.92710  0.45470  1.0000
  O   O29       1.0  0.79020  0.13670  0.50290  1.0000
  Cu  Cu2       1.0  0.00000  0.50000  0.00000  1.0000
  O   O30       1.0  0.67240  0.85840  0.52270  1.0000
  O   O31       1.0  0.72100  0.93890  0.37790  1.0000
  O   O32       1.0  0.39020  0.00030  0.72540  1.0000
  Si  Si1       1.0  0.50000  0.00000  0.50000  1.0000
  O   O33       1.0  0.45200  0.24750  0.65250  1.0000
  O   O34       1.0  0.55010  0.10240  0.46730  1.0000
  Cu  Cu3       1.0  0.00000  0.50000  0.50000  1.0000
  O   O35       1.0  0.62740  0.29380  0.54810  1.0000
  O   O36       1.0  0.68960  0.19510  0.39430  1.0000
  O   O37       1.0  0.50400  0.80180  0.61870  1.0000
  W   W11       1.0  0.52558  0.75577  0.48189  1.0000
  Cu  Cu4       1.0  0.97640  0.70560  0.94729  1.0000
  W   W12       1.0  0.32606  0.86663  0.27695  1.0000
  O   O38       1.0  0.25290  0.94430  0.34970  1.0000
