data_image0
_chemical_formula_structural       C3HCHC2HCHC2HCHC2HCHO2C3HCHC2HCHC2HCHC2HCHO2C3HCHC2HCHC2HCHC2HCHO2C3HCHC2HCHC2HCHC2HCHO2C5HCHC2HCHC2HCHC2HCHO2C3HCHC2HCHC2HCHC2HCHO2C3HCHC2HCHC2HCHC2HCHO2C3HCHC2HCHC2HCHC2HCHO2C5HCHC2HCHC2HCHC2HCHO2C3HCHC2HCHC2HCHC2HCHO2C3HCHC2HCHC2HCHC2HCHO2C3HCHC2HCHC2HCHC2HCHO2C5HCHC2HCHC2HCHC2HCHO2C3HCHC2HCHC2HCHC2HCHO2C3HCHC2HCHC2HCHC2HCHO2C3HCHC2HCHC2HCHC2HCHO2C2In4
_chemical_formula_sum              "C216 H128 O32 In4"
_cell_length_a       10.1847
_cell_length_b       10.1847
_cell_length_c       43.5417
_cell_angle_alpha    90
_cell_angle_beta     90
_cell_angle_gamma    90

_space_group_name_H-M_alt    "P 1"
_space_group_IT_number       1

loop_
  _space_group_symop_operation_xyz
  'x, y, z'

loop_
  _atom_site_type_symbol
  _atom_site_label
  _atom_site_symmetry_multiplicity
  _atom_site_fract_x
  _atom_site_fract_y
  _atom_site_fract_z
  _atom_site_occupancy
  C   C1        1.0  0.62230  0.36410  0.95471  1.0000
  C   C2        1.0  0.57360  0.41830  0.92551  1.0000
  C   C3        1.0  0.56500  0.55270  0.91945  1.0000
  H   H1        1.0  0.58510  0.61360  0.93530  1.0000
  C   C4        1.0  0.52760  0.59950  0.89064  1.0000
  H   H2        1.0  0.52230  0.69140  0.88710  1.0000
  C   C5        1.0  0.49710  0.50990  0.86644  1.0000
  C   C6        1.0  0.50680  0.37330  0.87294  1.0000
  H   H3        1.0  0.48730  0.31180  0.85720  1.0000
  C   C7        1.0  0.54480  0.32620  0.90223  1.0000
  H   H4        1.0  0.55070  0.23460  0.90610  1.0000
  C   C8        1.0  0.45680  0.55790  0.83653  1.0000
  C   C9        1.0  0.46160  0.69090  0.82842  1.0000
  H   H5        1.0  0.49700  0.75120  0.84290  1.0000
  C   C10       1.0  0.41830  0.73880  0.80097  1.0000
  H   H6        1.0  0.42630  0.82980  0.79670  1.0000
  C   C11       1.0  0.36210  0.65500  0.77905  1.0000
  C   C12       1.0  0.35710  0.51860  0.78576  1.0000
  H   H7        1.0  0.32280  0.45900  0.77100  1.0000
  C   C13       1.0  0.40280  0.47210  0.81406  1.0000
  H   H8        1.0  0.39760  0.38080  0.81840  1.0000
  O   O1        1.0  0.60193  0.23948  0.96046  1.0000
  O   O2        1.0  0.67250  0.43481  0.97316  1.0000
  C   C14       1.0  0.87770  0.13590  0.95471  1.0000
  C   C15       1.0  0.92640  0.08170  0.92551  1.0000
  C   C16       1.0  0.93500  0.94730  0.91945  1.0000
  H   H9        1.0  0.91490  0.88640  0.93530  1.0000
  C   C17       1.0  0.97240  0.90050  0.89064  1.0000
  H   H10       1.0  0.97770  0.80860  0.88710  1.0000
  C   C18       1.0  0.00290  0.99010  0.86644  1.0000
  C   C19       1.0  0.99320  0.12670  0.87294  1.0000
  H   H11       1.0  0.01270  0.18820  0.85720  1.0000
  C   C20       1.0  0.95520  0.17380  0.90223  1.0000
  H   H12       1.0  0.94930  0.26540  0.90610  1.0000
  C   C21       1.0  0.04320  0.94210  0.83653  1.0000
  C   C22       1.0  0.03840  0.80910  0.82842  1.0000
  H   H13       1.0  0.00300  0.74880  0.84290  1.0000
  C   C23       1.0  0.08170  0.76120  0.80097  1.0000
  H   H14       1.0  0.07370  0.67020  0.79670  1.0000
  C   C24       1.0  0.13790  0.84500  0.77905  1.0000
  C   C25       1.0  0.14290  0.98140  0.78576  1.0000
  H   H15       1.0  0.17720  0.04100  0.77100  1.0000
  C   C26       1.0  0.09720  0.02790  0.81406  1.0000
  H   H16       1.0  0.10240  0.11920  0.81840  1.0000
  O   O3        1.0  0.89807  0.26052  0.96046  1.0000
  O   O4        1.0  0.82750  0.06519  0.97316  1.0000
  C   C27       1.0  0.86410  0.12230  0.54529  1.0000
  C   C28       1.0  0.91830  0.07360  0.57449  1.0000
  C   C29       1.0  0.05270  0.06500  0.58055  1.0000
  H   H17       1.0  0.11360  0.08510  0.56470  1.0000
  C   C30       1.0  0.09950  0.02760  0.60936  1.0000
  H   H18       1.0  0.19140  0.02230  0.61290  1.0000
  C   C31       1.0  0.00990  0.99710  0.63356  1.0000
  C   C32       1.0  0.87330  0.00680  0.62706  1.0000
  H   H19       1.0  0.81180  0.98730  0.64280  1.0000
  C   C33       1.0  0.82620  0.04480  0.59777  1.0000
  H   H20       1.0  0.73460  0.05070  0.59390  1.0000
  C   C34       1.0  0.05790  0.95680  0.66347  1.0000
  C   C35       1.0  0.19090  0.96160  0.67158  1.0000
  H   H21       1.0  0.25120  0.99700  0.65710  1.0000
  C   C36       1.0  0.23880  0.91830  0.69903  1.0000
  H   H22       1.0  0.32980  0.92630  0.70330  1.0000
  C   C37       1.0  0.15500  0.86210  0.72095  1.0000
  C   C38       1.0  0.01860  0.85710  0.71424  1.0000
  H   H23       1.0  0.95900  0.82280  0.72900  1.0000
  C   C39       1.0  0.97210  0.90280  0.68594  1.0000
  H   H24       1.0  0.88080  0.89760  0.68160  1.0000
  O   O5        1.0  0.73948  0.10193  0.53954  1.0000
  O   O6        1.0  0.93481  0.17250  0.52684  1.0000
  C   C40       1.0  0.63590  0.37770  0.54529  1.0000
  C   C41       1.0  0.58170  0.42640  0.57449  1.0000
  C   C42       1.0  0.44730  0.43500  0.58055  1.0000
  H   H25       1.0  0.38640  0.41490  0.56470  1.0000
  C   C43       1.0  0.40050  0.47240  0.60936  1.0000
  H   H26       1.0  0.30860  0.47770  0.61290  1.0000
  C   C44       1.0  0.49010  0.50290  0.63356  1.0000
  C   C45       1.0  0.62670  0.49320  0.62706  1.0000
  H   H27       1.0  0.68820  0.51270  0.64280  1.0000
  C   C46       1.0  0.67380  0.45520  0.59777  1.0000
  H   H28       1.0  0.76540  0.44930  0.59390  1.0000
  C   C47       1.0  0.44210  0.54320  0.66347  1.0000
  C   C48       1.0  0.30910  0.53840  0.67158  1.0000
  H   H29       1.0  0.24880  0.50300  0.65710  1.0000
  C   C49       1.0  0.26120  0.58170  0.69903  1.0000
  H   H30       1.0  0.17020  0.57370  0.70330  1.0000
  C   C50       1.0  0.34500  0.63790  0.72095  1.0000
  C   C51       1.0  0.48140  0.64290  0.71424  1.0000
  H   H31       1.0  0.54100  0.67720  0.72900  1.0000
  C   C52       1.0  0.52790  0.59720  0.68594  1.0000
  H   H32       1.0  0.61920  0.60240  0.68160  1.0000
  O   O7        1.0  0.76052  0.39807  0.53954  1.0000
  O   O8        1.0  0.56519  0.32750  0.52684  1.0000
  C   C53       1.0  0.29920  0.70080  0.75000  1.0000
  C   C54       1.0  0.20080  0.79920  0.75000  1.0000
  C   C55       1.0  0.13590  0.62230  0.95471  1.0000
  C   C56       1.0  0.08170  0.57360  0.92551  1.0000
  C   C57       1.0  0.94730  0.56500  0.91945  1.0000
  H   H33       1.0  0.88640  0.58510  0.93530  1.0000
  C   C58       1.0  0.90050  0.52760  0.89064  1.0000
  H   H34       1.0  0.80860  0.52230  0.88710  1.0000
  C   C59       1.0  0.99010  0.49710  0.86644  1.0000
  C   C60       1.0  0.12670  0.50680  0.87294  1.0000
  H   H35       1.0  0.18820  0.48730  0.85720  1.0000
  C   C61       1.0  0.17380  0.54480  0.90223  1.0000
  H   H36       1.0  0.26540  0.55070  0.90610  1.0000
  C   C62       1.0  0.94210  0.45680  0.83653  1.0000
  C   C63       1.0  0.80910  0.46160  0.82842  1.0000
  H   H37       1.0  0.74880  0.49700  0.84290  1.0000
  C   C64       1.0  0.76120  0.41830  0.80097  1.0000
  H   H38       1.0  0.67020  0.42630  0.79670  1.0000
  C   C65       1.0  0.84500  0.36210  0.77905  1.0000
  C   C66       1.0  0.98140  0.35710  0.78576  1.0000
  H   H39       1.0  0.04100  0.32280  0.77100  1.0000
  C   C67       1.0  0.02790  0.40280  0.81406  1.0000
  H   H40       1.0  0.11920  0.39760  0.81840  1.0000
  O   O9        1.0  0.26052  0.60193  0.96046  1.0000
  O   O10       1.0  0.06519  0.67250  0.97316  1.0000
  C   C68       1.0  0.36410  0.87770  0.95471  1.0000
  C   C69       1.0  0.41830  0.92640  0.92551  1.0000
  C   C70       1.0  0.55270  0.93500  0.91945  1.0000
  H   H41       1.0  0.61360  0.91490  0.93530  1.0000
  C   C71       1.0  0.59950  0.97240  0.89064  1.0000
  H   H42       1.0  0.69140  0.97770  0.88710  1.0000
  C   C72       1.0  0.50990  0.00290  0.86644  1.0000
  C   C73       1.0  0.37330  0.99320  0.87294  1.0000
  H   H43       1.0  0.31180  0.01270  0.85720  1.0000
  C   C74       1.0  0.32620  0.95520  0.90223  1.0000
  H   H44       1.0  0.23460  0.94930  0.90610  1.0000
  C   C75       1.0  0.55790  0.04320  0.83653  1.0000
  C   C76       1.0  0.69090  0.03840  0.82842  1.0000
  H   H45       1.0  0.75120  0.00300  0.84290  1.0000
  C   C77       1.0  0.73880  0.08170  0.80097  1.0000
  H   H46       1.0  0.82980  0.07370  0.79670  1.0000
  C   C78       1.0  0.65500  0.13790  0.77905  1.0000
  C   C79       1.0  0.51860  0.14290  0.78576  1.0000
  H   H47       1.0  0.45900  0.17720  0.77100  1.0000
  C   C80       1.0  0.47210  0.09720  0.81406  1.0000
  H   H48       1.0  0.38080  0.10240  0.81840  1.0000
  O   O11       1.0  0.23948  0.89807  0.96046  1.0000
  O   O12       1.0  0.43481  0.82750  0.97316  1.0000
  C   C81       1.0  0.37770  0.86410  0.54529  1.0000
  C   C82       1.0  0.42640  0.91830  0.57449  1.0000
  C   C83       1.0  0.43500  0.05270  0.58055  1.0000
  H   H49       1.0  0.41490  0.11360  0.56470  1.0000
  C   C84       1.0  0.47240  0.09950  0.60936  1.0000
  H   H50       1.0  0.47770  0.19140  0.61290  1.0000
  C   C85       1.0  0.50290  0.00990  0.63356  1.0000
  C   C86       1.0  0.49320  0.87330  0.62706  1.0000
  H   H51       1.0  0.51270  0.81180  0.64280  1.0000
  C   C87       1.0  0.45520  0.82620  0.59777  1.0000
  H   H52       1.0  0.44930  0.73460  0.59390  1.0000
  C   C88       1.0  0.54320  0.05790  0.66347  1.0000
  C   C89       1.0  0.53840  0.19090  0.67158  1.0000
  H   H53       1.0  0.50300  0.25120  0.65710  1.0000
  C   C90       1.0  0.58170  0.23880  0.69903  1.0000
  H   H54       1.0  0.57370  0.32980  0.70330  1.0000
  C   C91       1.0  0.63790  0.15500  0.72095  1.0000
  C   C92       1.0  0.64290  0.01860  0.71424  1.0000
  H   H55       1.0  0.67720  0.95900  0.72900  1.0000
  C   C93       1.0  0.59720  0.97210  0.68594  1.0000
  H   H56       1.0  0.60240  0.88080  0.68160  1.0000
  O   O13       1.0  0.39807  0.73948  0.53954  1.0000
  O   O14       1.0  0.32750  0.93481  0.52684  1.0000
  C   C94       1.0  0.12230  0.63590  0.54529  1.0000
  C   C95       1.0  0.07360  0.58170  0.57449  1.0000
  C   C96       1.0  0.06500  0.44730  0.58055  1.0000
  H   H57       1.0  0.08510  0.38640  0.56470  1.0000
  C   C97       1.0  0.02760  0.40050  0.60936  1.0000
  H   H58       1.0  0.02230  0.30860  0.61290  1.0000
  C   C98       1.0  0.99710  0.49010  0.63356  1.0000
  C   C99       1.0  0.00680  0.62670  0.62706  1.0000
  H   H59       1.0  0.98730  0.68820  0.64280  1.0000
  C   C100      1.0  0.04480  0.67380  0.59777  1.0000
  H   H60       1.0  0.05070  0.76540  0.59390  1.0000
  C   C101      1.0  0.95680  0.44210  0.66347  1.0000
  C   C102      1.0  0.96160  0.30910  0.67158  1.0000
  H   H61       1.0  0.99700  0.24880  0.65710  1.0000
  C   C103      1.0  0.91830  0.26120  0.69903  1.0000
  H   H62       1.0  0.92630  0.17020  0.70330  1.0000
  C   C104      1.0  0.86210  0.34500  0.72095  1.0000
  C   C105      1.0  0.85710  0.48140  0.71424  1.0000
  H   H63       1.0  0.82280  0.54100  0.72900  1.0000
  C   C106      1.0  0.90280  0.52790  0.68594  1.0000
  H   H64       1.0  0.89760  0.61920  0.68160  1.0000
  O   O15       1.0  0.10193  0.76052  0.53954  1.0000
  O   O16       1.0  0.17250  0.56519  0.52684  1.0000
  C   C107      1.0  0.79920  0.29920  0.75000  1.0000
  C   C108      1.0  0.70080  0.20080  0.75000  1.0000
  C   C109      1.0  0.37770  0.63590  0.04529  1.0000
  C   C110      1.0  0.42640  0.58170  0.07449  1.0000
  C   C111      1.0  0.43500  0.44730  0.08055  1.0000
  H   H65       1.0  0.41490  0.38640  0.06470  1.0000
  C   C112      1.0  0.47240  0.40050  0.10936  1.0000
  H   H66       1.0  0.47770  0.30860  0.11290  1.0000
  C   C113      1.0  0.50290  0.49010  0.13356  1.0000
  C   C114      1.0  0.49320  0.62670  0.12706  1.0000
  H   H67       1.0  0.51270  0.68820  0.14280  1.0000
  C   C115      1.0  0.45520  0.67380  0.09777  1.0000
  H   H68       1.0  0.44930  0.76540  0.09390  1.0000
  C   C116      1.0  0.54320  0.44210  0.16347  1.0000
  C   C117      1.0  0.53840  0.30910  0.17158  1.0000
  H   H69       1.0  0.50300  0.24880  0.15710  1.0000
  C   C118      1.0  0.58170  0.26120  0.19903  1.0000
  H   H70       1.0  0.57370  0.17020  0.20330  1.0000
  C   C119      1.0  0.63790  0.34500  0.22095  1.0000
  C   C120      1.0  0.64290  0.48140  0.21424  1.0000
  H   H71       1.0  0.67720  0.54100  0.22900  1.0000
  C   C121      1.0  0.59720  0.52790  0.18594  1.0000
  H   H72       1.0  0.60240  0.61920  0.18160  1.0000
  O   O17       1.0  0.39807  0.76052  0.03954  1.0000
  O   O18       1.0  0.32750  0.56519  0.02684  1.0000
  C   C122      1.0  0.12230  0.86410  0.04529  1.0000
  C   C123      1.0  0.07360  0.91830  0.07449  1.0000
  C   C124      1.0  0.06500  0.05270  0.08055  1.0000
  H   H73       1.0  0.08510  0.11360  0.06470  1.0000
  C   C125      1.0  0.02760  0.09950  0.10936  1.0000
  H   H74       1.0  0.02230  0.19140  0.11290  1.0000
  C   C126      1.0  0.99710  0.00990  0.13356  1.0000
  C   C127      1.0  0.00680  0.87330  0.12706  1.0000
  H   H75       1.0  0.98730  0.81180  0.14280  1.0000
  C   C128      1.0  0.04480  0.82620  0.09777  1.0000
  H   H76       1.0  0.05070  0.73460  0.09390  1.0000
  C   C129      1.0  0.95680  0.05790  0.16347  1.0000
  C   C130      1.0  0.96160  0.19090  0.17158  1.0000
  H   H77       1.0  0.99700  0.25120  0.15710  1.0000
  C   C131      1.0  0.91830  0.23880  0.19903  1.0000
  H   H78       1.0  0.92630  0.32980  0.20330  1.0000
  C   C132      1.0  0.86210  0.15500  0.22095  1.0000
  C   C133      1.0  0.85710  0.01860  0.21424  1.0000
  H   H79       1.0  0.82280  0.95900  0.22900  1.0000
  C   C134      1.0  0.90280  0.97210  0.18594  1.0000
  H   H80       1.0  0.89760  0.88080  0.18160  1.0000
  O   O19       1.0  0.10193  0.73948  0.03954  1.0000
  O   O20       1.0  0.17250  0.93481  0.02684  1.0000
  C   C135      1.0  0.13590  0.87770  0.45471  1.0000
  C   C136      1.0  0.08170  0.92640  0.42551  1.0000
  C   C137      1.0  0.94730  0.93500  0.41945  1.0000
  H   H81       1.0  0.88640  0.91490  0.43530  1.0000
  C   C138      1.0  0.90050  0.97240  0.39064  1.0000
  H   H82       1.0  0.80860  0.97770  0.38710  1.0000
  C   C139      1.0  0.99010  0.00290  0.36644  1.0000
  C   C140      1.0  0.12670  0.99320  0.37294  1.0000
  H   H83       1.0  0.18820  0.01270  0.35720  1.0000
  C   C141      1.0  0.17380  0.95520  0.40223  1.0000
  H   H84       1.0  0.26540  0.94930  0.40610  1.0000
  C   C142      1.0  0.94210  0.04320  0.33653  1.0000
  C   C143      1.0  0.80910  0.03840  0.32842  1.0000
  H   H85       1.0  0.74880  0.00300  0.34290  1.0000
  C   C144      1.0  0.76120  0.08170  0.30097  1.0000
  H   H86       1.0  0.67020  0.07370  0.29670  1.0000
  C   C145      1.0  0.84500  0.13790  0.27905  1.0000
  C   C146      1.0  0.98140  0.14290  0.28576  1.0000
  H   H87       1.0  0.04100  0.17720  0.27100  1.0000
  C   C147      1.0  0.02790  0.09720  0.31406  1.0000
  H   H88       1.0  0.11920  0.10240  0.31840  1.0000
  O   O21       1.0  0.26052  0.89807  0.46046  1.0000
  O   O22       1.0  0.06519  0.82750  0.47316  1.0000
  C   C148      1.0  0.36410  0.62230  0.45471  1.0000
  C   C149      1.0  0.41830  0.57360  0.42551  1.0000
  C   C150      1.0  0.55270  0.56500  0.41945  1.0000
  H   H89       1.0  0.61360  0.58510  0.43530  1.0000
  C   C151      1.0  0.59950  0.52760  0.39064  1.0000
  H   H90       1.0  0.69140  0.52230  0.38710  1.0000
  C   C152      1.0  0.50990  0.49710  0.36644  1.0000
  C   C153      1.0  0.37330  0.50680  0.37294  1.0000
  H   H91       1.0  0.31180  0.48730  0.35720  1.0000
  C   C154      1.0  0.32620  0.54480  0.40223  1.0000
  H   H92       1.0  0.23460  0.55070  0.40610  1.0000
  C   C155      1.0  0.55790  0.45680  0.33653  1.0000
  C   C156      1.0  0.69090  0.46160  0.32842  1.0000
  H   H93       1.0  0.75120  0.49700  0.34290  1.0000
  C   C157      1.0  0.73880  0.41830  0.30097  1.0000
  H   H94       1.0  0.82980  0.42630  0.29670  1.0000
  C   C158      1.0  0.65500  0.36210  0.27905  1.0000
  C   C159      1.0  0.51860  0.35710  0.28576  1.0000
  H   H95       1.0  0.45900  0.32280  0.27100  1.0000
  C   C160      1.0  0.47210  0.40280  0.31406  1.0000
  H   H96       1.0  0.38080  0.39760  0.31840  1.0000
  O   O23       1.0  0.23948  0.60193  0.46046  1.0000
  O   O24       1.0  0.43481  0.67250  0.47316  1.0000
  C   C161      1.0  0.70080  0.29920  0.25000  1.0000
  C   C162      1.0  0.79920  0.20080  0.25000  1.0000
  C   C163      1.0  0.86410  0.37770  0.04529  1.0000
  C   C164      1.0  0.91830  0.42640  0.07449  1.0000
  C   C165      1.0  0.05270  0.43500  0.08055  1.0000
  H   H97       1.0  0.11360  0.41490  0.06470  1.0000
  C   C166      1.0  0.09950  0.47240  0.10936  1.0000
  H   H98       1.0  0.19140  0.47770  0.11290  1.0000
  C   C167      1.0  0.00990  0.50290  0.13356  1.0000
  C   C168      1.0  0.87330  0.49320  0.12706  1.0000
  H   H99       1.0  0.81180  0.51270  0.14280  1.0000
  C   C169      1.0  0.82620  0.45520  0.09777  1.0000
  H   H100      1.0  0.73460  0.44930  0.09390  1.0000
  C   C170      1.0  0.05790  0.54320  0.16347  1.0000
  C   C171      1.0  0.19090  0.53840  0.17158  1.0000
  H   H101      1.0  0.25120  0.50300  0.15710  1.0000
  C   C172      1.0  0.23880  0.58170  0.19903  1.0000
  H   H102      1.0  0.32980  0.57370  0.20330  1.0000
  C   C173      1.0  0.15500  0.63790  0.22095  1.0000
  C   C174      1.0  0.01860  0.64290  0.21424  1.0000
  H   H103      1.0  0.95900  0.67720  0.22900  1.0000
  C   C175      1.0  0.97210  0.59720  0.18594  1.0000
  H   H104      1.0  0.88080  0.60240  0.18160  1.0000
  O   O25       1.0  0.73948  0.39807  0.03954  1.0000
  O   O26       1.0  0.93481  0.32750  0.02684  1.0000
  C   C176      1.0  0.63590  0.12230  0.04529  1.0000
  C   C177      1.0  0.58170  0.07360  0.07449  1.0000
  C   C178      1.0  0.44730  0.06500  0.08055  1.0000
  H   H105      1.0  0.38640  0.08510  0.06470  1.0000
  C   C179      1.0  0.40050  0.02760  0.10936  1.0000
  H   H106      1.0  0.30860  0.02230  0.11290  1.0000
  C   C180      1.0  0.49010  0.99710  0.13356  1.0000
  C   C181      1.0  0.62670  0.00680  0.12706  1.0000
  H   H107      1.0  0.68820  0.98730  0.14280  1.0000
  C   C182      1.0  0.67380  0.04480  0.09777  1.0000
  H   H108      1.0  0.76540  0.05070  0.09390  1.0000
  C   C183      1.0  0.44210  0.95680  0.16347  1.0000
  C   C184      1.0  0.30910  0.96160  0.17158  1.0000
  H   H109      1.0  0.24880  0.99700  0.15710  1.0000
  C   C185      1.0  0.26120  0.91830  0.19903  1.0000
  H   H110      1.0  0.17020  0.92630  0.20330  1.0000
  C   C186      1.0  0.34500  0.86210  0.22095  1.0000
  C   C187      1.0  0.48140  0.85710  0.21424  1.0000
  H   H111      1.0  0.54100  0.82280  0.22900  1.0000
  C   C188      1.0  0.52790  0.90280  0.18594  1.0000
  H   H112      1.0  0.61920  0.89760  0.18160  1.0000
  O   O27       1.0  0.76052  0.10193  0.03954  1.0000
  O   O28       1.0  0.56519  0.17250  0.02684  1.0000
  C   C189      1.0  0.62230  0.13590  0.45471  1.0000
  C   C190      1.0  0.57360  0.08170  0.42551  1.0000
  C   C191      1.0  0.56500  0.94730  0.41945  1.0000
  H   H113      1.0  0.58510  0.88640  0.43530  1.0000
  C   C192      1.0  0.52760  0.90050  0.39064  1.0000
  H   H114      1.0  0.52230  0.80860  0.38710  1.0000
  C   C193      1.0  0.49710  0.99010  0.36644  1.0000
  C   C194      1.0  0.50680  0.12670  0.37294  1.0000
  H   H115      1.0  0.48730  0.18820  0.35720  1.0000
  C   C195      1.0  0.54480  0.17380  0.40223  1.0000
  H   H116      1.0  0.55070  0.26540  0.40610  1.0000
  C   C196      1.0  0.45680  0.94210  0.33653  1.0000
  C   C197      1.0  0.46160  0.80910  0.32842  1.0000
  H   H117      1.0  0.49700  0.74880  0.34290  1.0000
  C   C198      1.0  0.41830  0.76120  0.30097  1.0000
  H   H118      1.0  0.42630  0.67020  0.29670  1.0000
  C   C199      1.0  0.36210  0.84500  0.27905  1.0000
  C   C200      1.0  0.35710  0.98140  0.28576  1.0000
  H   H119      1.0  0.32280  0.04100  0.27100  1.0000
  C   C201      1.0  0.40280  0.02790  0.31406  1.0000
  H   H120      1.0  0.39760  0.11920  0.31840  1.0000
  O   O29       1.0  0.60193  0.26052  0.46046  1.0000
  O   O30       1.0  0.67250  0.06519  0.47316  1.0000
  C   C202      1.0  0.87770  0.36410  0.45471  1.0000
  C   C203      1.0  0.92640  0.41830  0.42551  1.0000
  C   C204      1.0  0.93500  0.55270  0.41945  1.0000
  H   H121      1.0  0.91490  0.61360  0.43530  1.0000
  C   C205      1.0  0.97240  0.59950  0.39064  1.0000
  H   H122      1.0  0.97770  0.69140  0.38710  1.0000
  C   C206      1.0  0.00290  0.50990  0.36644  1.0000
  C   C207      1.0  0.99320  0.37330  0.37294  1.0000
  H   H123      1.0  0.01270  0.31180  0.35720  1.0000
  C   C208      1.0  0.95520  0.32620  0.40223  1.0000
  H   H124      1.0  0.94930  0.23460  0.40610  1.0000
  C   C209      1.0  0.04320  0.55790  0.33653  1.0000
  C   C210      1.0  0.03840  0.69090  0.32842  1.0000
  H   H125      1.0  0.00300  0.75120  0.34290  1.0000
  C   C211      1.0  0.08170  0.73880  0.30097  1.0000
  H   H126      1.0  0.07370  0.82980  0.29670  1.0000
  C   C212      1.0  0.13790  0.65500  0.27905  1.0000
  C   C213      1.0  0.14290  0.51860  0.28576  1.0000
  H   H127      1.0  0.17720  0.45900  0.27100  1.0000
  C   C214      1.0  0.09720  0.47210  0.31406  1.0000
  H   H128      1.0  0.10240  0.38080  0.31840  1.0000
  O   O31       1.0  0.89807  0.23948  0.46046  1.0000
  O   O32       1.0  0.82750  0.43481  0.47316  1.0000
  C   C215      1.0  0.20080  0.70080  0.25000  1.0000
  C   C216      1.0  0.29920  0.79920  0.25000  1.0000
  In  In1       1.0  0.75000  0.25000  0.00000  1.0000
  In  In2       1.0  0.25000  0.75000  0.00000  1.0000
  In  In3       1.0  0.25000  0.75000  0.50000  1.0000
  In  In4       1.0  0.75000  0.25000  0.50000  1.0000
