data_image0
_chemical_formula_structural       CHOCHOCHOCHOC7HOCHOCHOCHOC2Ba2CHOCHOCHOCHOC7HOCHOCHOCHOC2Ba2CHOCHOCHOCHOC7HOCHOCHOCHOC2Ba2CHOCHOCHOCHOC7HOCHOCHOCHOC2Ba2
_chemical_formula_sum              "C64 H32 O32 Ba8"
_cell_length_a       13.7384
_cell_length_b       11.8106
_cell_length_c       9.6318
_cell_angle_alpha    90
_cell_angle_beta     91.622
_cell_angle_gamma    90

_space_group_name_H-M_alt    "P 1"
_space_group_IT_number       1

loop_
  _space_group_symop_operation_xyz
  'x, y, z'

loop_
  _atom_site_type_symbol
  _atom_site_label
  _atom_site_symmetry_multiplicity
  _atom_site_fract_x
  _atom_site_fract_y
  _atom_site_fract_z
  _atom_site_occupancy
  C   C1        1.0  0.26200  0.15600  0.91000  1.0000
  H   H1        1.0  0.29775  0.10284  0.86090  1.0000
  O   O1        1.0  0.16070  0.15600  0.65480  1.0000
  C   C2        1.0  0.23800  0.15600  0.09000  1.0000
  H   H2        1.0  0.20225  0.10284  0.13910  1.0000
  O   O2        1.0  0.33930  0.15600  0.34520  1.0000
  C   C3        1.0  0.23800  0.34400  0.09000  1.0000
  H   H3        1.0  0.20225  0.39716  0.13910  1.0000
  O   O3        1.0  0.33930  0.34400  0.34520  1.0000
  C   C4        1.0  0.26200  0.34400  0.91000  1.0000
  H   H4        1.0  0.29775  0.39716  0.86090  1.0000
  O   O4        1.0  0.16070  0.34400  0.65480  1.0000
  C   C5        1.0  0.18000  0.25000  0.71340  1.0000
  C   C6        1.0  0.21750  0.25000  0.85980  1.0000
  C   C7        1.0  0.32000  0.25000  0.28660  1.0000
  C   C8        1.0  0.28250  0.25000  0.14020  1.0000
  C   C9        1.0  0.07000  0.00000  0.28660  1.0000
  C   C10       1.0  0.03250  0.00000  0.14020  1.0000
  C   C11       1.0  0.01200  0.40600  0.91000  1.0000
  H   H5        1.0  0.04775  0.35284  0.86090  1.0000
  O   O5        1.0  0.41070  0.40600  0.65480  1.0000
  C   C12       1.0  0.48800  0.40600  0.09000  1.0000
  H   H6        1.0  0.45225  0.35284  0.13910  1.0000
  O   O6        1.0  0.08930  0.40600  0.34520  1.0000
  C   C13       1.0  0.48800  0.09400  0.09000  1.0000
  H   H7        1.0  0.45225  0.14717  0.13910  1.0000
  O   O7        1.0  0.08930  0.09400  0.34520  1.0000
  C   C14       1.0  0.01200  0.09400  0.91000  1.0000
  H   H8        1.0  0.04775  0.14717  0.86090  1.0000
  O   O8        1.0  0.41070  0.09400  0.65480  1.0000
  C   C15       1.0  0.43000  0.00000  0.71340  1.0000
  C   C16       1.0  0.46750  0.00000  0.85980  1.0000
  Ba  Ba1       1.0  0.00000  0.25000  0.50000  1.0000
  Ba  Ba2       1.0  0.25000  0.00000  0.50000  1.0000
  C   C17       1.0  0.26200  0.65600  0.91000  1.0000
  H   H9        1.0  0.29775  0.60284  0.86090  1.0000
  O   O9        1.0  0.16070  0.65600  0.65480  1.0000
  C   C18       1.0  0.23800  0.65600  0.09000  1.0000
  H   H10       1.0  0.20225  0.60284  0.13910  1.0000
  O   O10       1.0  0.33930  0.65600  0.34520  1.0000
  C   C19       1.0  0.23800  0.84400  0.09000  1.0000
  H   H11       1.0  0.20225  0.89717  0.13910  1.0000
  O   O11       1.0  0.33930  0.84400  0.34520  1.0000
  C   C20       1.0  0.26200  0.84400  0.91000  1.0000
  H   H12       1.0  0.29775  0.89717  0.86090  1.0000
  O   O12       1.0  0.16070  0.84400  0.65480  1.0000
  C   C21       1.0  0.18000  0.75000  0.71340  1.0000
  C   C22       1.0  0.21750  0.75000  0.85980  1.0000
  C   C23       1.0  0.32000  0.75000  0.28660  1.0000
  C   C24       1.0  0.28250  0.75000  0.14020  1.0000
  C   C25       1.0  0.07000  0.50000  0.28660  1.0000
  C   C26       1.0  0.03250  0.50000  0.14020  1.0000
  C   C27       1.0  0.01200  0.90600  0.91000  1.0000
  H   H13       1.0  0.04775  0.85284  0.86090  1.0000
  O   O13       1.0  0.41070  0.90600  0.65480  1.0000
  C   C28       1.0  0.48800  0.90600  0.09000  1.0000
  H   H14       1.0  0.45225  0.85284  0.13910  1.0000
  O   O14       1.0  0.08930  0.90600  0.34520  1.0000
  C   C29       1.0  0.48800  0.59400  0.09000  1.0000
  H   H15       1.0  0.45225  0.64717  0.13910  1.0000
  O   O15       1.0  0.08930  0.59400  0.34520  1.0000
  C   C30       1.0  0.01200  0.59400  0.91000  1.0000
  H   H16       1.0  0.04775  0.64717  0.86090  1.0000
  O   O16       1.0  0.41070  0.59400  0.65480  1.0000
  C   C31       1.0  0.43000  0.50000  0.71340  1.0000
  C   C32       1.0  0.46750  0.50000  0.85980  1.0000
  Ba  Ba3       1.0  0.00000  0.75000  0.50000  1.0000
  Ba  Ba4       1.0  0.25000  0.50000  0.50000  1.0000
  C   C33       1.0  0.76200  0.15600  0.91000  1.0000
  H   H17       1.0  0.79775  0.10284  0.86090  1.0000
  O   O17       1.0  0.66070  0.15600  0.65480  1.0000
  C   C34       1.0  0.73800  0.15600  0.09000  1.0000
  H   H18       1.0  0.70225  0.10284  0.13910  1.0000
  O   O18       1.0  0.83930  0.15600  0.34520  1.0000
  C   C35       1.0  0.73800  0.34400  0.09000  1.0000
  H   H19       1.0  0.70225  0.39716  0.13910  1.0000
  O   O19       1.0  0.83930  0.34400  0.34520  1.0000
  C   C36       1.0  0.76200  0.34400  0.91000  1.0000
  H   H20       1.0  0.79775  0.39716  0.86090  1.0000
  O   O20       1.0  0.66070  0.34400  0.65480  1.0000
  C   C37       1.0  0.68000  0.25000  0.71340  1.0000
  C   C38       1.0  0.71750  0.25000  0.85980  1.0000
  C   C39       1.0  0.82000  0.25000  0.28660  1.0000
  C   C40       1.0  0.78250  0.25000  0.14020  1.0000
  C   C41       1.0  0.57000  0.00000  0.28660  1.0000
  C   C42       1.0  0.53250  0.00000  0.14020  1.0000
  C   C43       1.0  0.51200  0.40600  0.91000  1.0000
  H   H21       1.0  0.54775  0.35284  0.86090  1.0000
  O   O21       1.0  0.91070  0.40600  0.65480  1.0000
  C   C44       1.0  0.98800  0.40600  0.09000  1.0000
  H   H22       1.0  0.95225  0.35284  0.13910  1.0000
  O   O22       1.0  0.58930  0.40600  0.34520  1.0000
  C   C45       1.0  0.98800  0.09400  0.09000  1.0000
  H   H23       1.0  0.95225  0.14717  0.13910  1.0000
  O   O23       1.0  0.58930  0.09400  0.34520  1.0000
  C   C46       1.0  0.51200  0.09400  0.91000  1.0000
  H   H24       1.0  0.54775  0.14717  0.86090  1.0000
  O   O24       1.0  0.91070  0.09400  0.65480  1.0000
  C   C47       1.0  0.93000  0.00000  0.71340  1.0000
  C   C48       1.0  0.96750  0.00000  0.85980  1.0000
  Ba  Ba5       1.0  0.50000  0.25000  0.50000  1.0000
  Ba  Ba6       1.0  0.75000  0.00000  0.50000  1.0000
  C   C49       1.0  0.76200  0.65600  0.91000  1.0000
  H   H25       1.0  0.79775  0.60284  0.86090  1.0000
  O   O25       1.0  0.66070  0.65600  0.65480  1.0000
  C   C50       1.0  0.73800  0.65600  0.09000  1.0000
  H   H26       1.0  0.70225  0.60284  0.13910  1.0000
  O   O26       1.0  0.83930  0.65600  0.34520  1.0000
  C   C51       1.0  0.73800  0.84400  0.09000  1.0000
  H   H27       1.0  0.70225  0.89717  0.13910  1.0000
  O   O27       1.0  0.83930  0.84400  0.34520  1.0000
  C   C52       1.0  0.76200  0.84400  0.91000  1.0000
  H   H28       1.0  0.79775  0.89717  0.86090  1.0000
  O   O28       1.0  0.66070  0.84400  0.65480  1.0000
  C   C53       1.0  0.68000  0.75000  0.71340  1.0000
  C   C54       1.0  0.71750  0.75000  0.85980  1.0000
  C   C55       1.0  0.82000  0.75000  0.28660  1.0000
  C   C56       1.0  0.78250  0.75000  0.14020  1.0000
  C   C57       1.0  0.57000  0.50000  0.28660  1.0000
  C   C58       1.0  0.53250  0.50000  0.14020  1.0000
  C   C59       1.0  0.51200  0.90600  0.91000  1.0000
  H   H29       1.0  0.54775  0.85284  0.86090  1.0000
  O   O29       1.0  0.91070  0.90600  0.65480  1.0000
  C   C60       1.0  0.98800  0.90600  0.09000  1.0000
  H   H30       1.0  0.95225  0.85284  0.13910  1.0000
  O   O30       1.0  0.58930  0.90600  0.34520  1.0000
  C   C61       1.0  0.98800  0.59400  0.09000  1.0000
  H   H31       1.0  0.95225  0.64717  0.13910  1.0000
  O   O31       1.0  0.58930  0.59400  0.34520  1.0000
  C   C62       1.0  0.51200  0.59400  0.91000  1.0000
  H   H32       1.0  0.54775  0.64717  0.86090  1.0000
  O   O32       1.0  0.91070  0.59400  0.65480  1.0000
  C   C63       1.0  0.93000  0.50000  0.71340  1.0000
  C   C64       1.0  0.96750  0.50000  0.85980  1.0000
  Ba  Ba7       1.0  0.50000  0.75000  0.50000  1.0000
  Ba  Ba8       1.0  0.75000  0.50000  0.50000  1.0000
