data_image0
_chemical_formula_structural       C7HCHC2HCHCHCHCHN2HN2O2HO2C7HCHC2HCHCHCHCHN2HN2O2HO2C7HCHC2HCHCHCHCHN2HN2O2HO2NHN2O2HO2C7HCHC2HCHCHCHCHNO4C2O4C2Pb4C7HCHC2HCHCHCHCHN2HN2O2HO2C7HCHC2HCHCHCHCHN2HN2O2HO2C7HCHC2HCHCHCHCHN2HN2O2HO2NHN2O2HO2C7HCHC2HCHCHCHCHNO4C2O4C2Pb4
_chemical_formula_sum              "C120 H72 N32 O48 Pb8"
_cell_length_a       15.9588
_cell_length_b       11.6275
_cell_length_c       15.6955
_cell_angle_alpha    90
_cell_angle_beta     95.676
_cell_angle_gamma    90

_space_group_name_H-M_alt    "P 1"
_space_group_IT_number       1

loop_
  _space_group_symop_operation_xyz
  'x, y, z'

loop_
  _atom_site_type_symbol
  _atom_site_label
  _atom_site_symmetry_multiplicity
  _atom_site_fract_x
  _atom_site_fract_y
  _atom_site_fract_z
  _atom_site_occupancy
  C   C1        1.0  0.49730  0.85990  0.61950  1.0000
  C   C2        1.0  0.46885  0.73900  0.60870  1.0000
  C   C3        1.0  0.48415  0.64490  0.66320  1.0000
  C   C4        1.0  0.03120  0.63320  0.74820  1.0000
  C   C5        1.0  0.41010  0.59260  0.54390  1.0000
  C   C6        1.0  0.36255  0.52080  0.47830  1.0000
  C   C7        1.0  0.37160  0.40280  0.47510  1.0000
  H   H1        1.0  0.40775  0.36620  0.51670  1.0000
  C   C8        1.0  0.32835  0.33780  0.41170  1.0000
  H   H2        1.0  0.33675  0.25880  0.40980  1.0000
  C   C9        1.0  0.27275  0.39030  0.35130  1.0000
  C   C10       1.0  0.25985  0.50980  0.35550  1.0000
  H   H3        1.0  0.22155  0.54600  0.31570  1.0000
  C   C11       1.0  0.30440  0.57290  0.41900  1.0000
  H   H4        1.0  0.29530  0.65180  0.42220  1.0000
  C   C12       1.0  0.17445  0.36810  0.21600  1.0000
  H   H5        1.0  0.15855  0.44450  0.20720  1.0000
  C   C13       1.0  0.14980  0.27810  0.16600  1.0000
  H   H6        1.0  0.11235  0.28230  0.11680  1.0000
  C   C14       1.0  0.23375  0.21090  0.26720  1.0000
  H   H7        1.0  0.26685  0.16050  0.30210  1.0000
  N   N1        1.0  0.42310  0.70500  0.53510  1.0000
  N   N2        1.0  0.44670  0.55400  0.62040  1.0000
  H   H8        1.0  0.44620  0.48420  0.63850  1.0000
  N   N3        1.0  0.22815  0.32510  0.28300  1.0000
  N   N4        1.0  0.18785  0.17900  0.19790  1.0000
  O   O1        1.0  0.03550  0.54160  0.78660  1.0000
  O   O2        1.0  0.06960  0.72380  0.78030  1.0000
  H   H9        1.0  0.04890  0.78140  0.75660  1.0000
  O   O3        1.0  0.04755  0.88620  0.68390  1.0000
  O   O4        1.0  0.47035  0.93220  0.56530  1.0000
  C   C15       1.0  0.25270  0.35990  0.88050  1.0000
  C   C16       1.0  0.28115  0.23900  0.89130  1.0000
  C   C17       1.0  0.26585  0.14490  0.83680  1.0000
  C   C18       1.0  0.21880  0.13320  0.75180  1.0000
  C   C19       1.0  0.33990  0.09260  0.95610  1.0000
  C   C20       1.0  0.38745  0.02080  0.02170  1.0000
  C   C21       1.0  0.37840  0.90280  0.02490  1.0000
  H   H10       1.0  0.34225  0.86620  0.98330  1.0000
  C   C22       1.0  0.42165  0.83780  0.08830  1.0000
  H   H11       1.0  0.41325  0.75880  0.09020  1.0000
  C   C23       1.0  0.47725  0.89030  0.14870  1.0000
  C   C24       1.0  0.49015  0.00980  0.14450  1.0000
  H   H12       1.0  0.02845  0.04600  0.18430  1.0000
  C   C25       1.0  0.44560  0.07290  0.08100  1.0000
  H   H13       1.0  0.45470  0.15180  0.07780  1.0000
  C   C26       1.0  0.07555  0.86810  0.28400  1.0000
  H   H14       1.0  0.09145  0.94450  0.29280  1.0000
  C   C27       1.0  0.10020  0.77810  0.33400  1.0000
  H   H15       1.0  0.13765  0.78230  0.38320  1.0000
  C   C28       1.0  0.01625  0.71090  0.23280  1.0000
  H   H16       1.0  0.48315  0.66050  0.19790  1.0000
  N   N5        1.0  0.32690  0.20500  0.96490  1.0000
  N   N6        1.0  0.30330  0.05400  0.87960  1.0000
  H   H17       1.0  0.30380  0.98420  0.86150  1.0000
  N   N7        1.0  0.02185  0.82510  0.21700  1.0000
  N   N8        1.0  0.06215  0.67900  0.30210  1.0000
  O   O5        1.0  0.21450  0.04160  0.71340  1.0000
  O   O6        1.0  0.18040  0.22380  0.71970  1.0000
  H   H18       1.0  0.20110  0.28140  0.74340  1.0000
  O   O7        1.0  0.20245  0.38620  0.81610  1.0000
  O   O8        1.0  0.27965  0.43220  0.93470  1.0000
  C   C29       1.0  0.00270  0.14010  0.38050  1.0000
  C   C30       1.0  0.03115  0.26100  0.39130  1.0000
  C   C31       1.0  0.01585  0.35510  0.33680  1.0000
  C   C32       1.0  0.46880  0.36680  0.25180  1.0000
  C   C33       1.0  0.08990  0.40740  0.45610  1.0000
  C   C34       1.0  0.13745  0.47920  0.52170  1.0000
  C   C35       1.0  0.12840  0.59720  0.52490  1.0000
  H   H19       1.0  0.09225  0.63380  0.48330  1.0000
  C   C36       1.0  0.17165  0.66220  0.58830  1.0000
  H   H20       1.0  0.16325  0.74120  0.59020  1.0000
  C   C37       1.0  0.22725  0.60970  0.64870  1.0000
  C   C38       1.0  0.24015  0.49020  0.64450  1.0000
  H   H21       1.0  0.27845  0.45400  0.68430  1.0000
  C   C39       1.0  0.19560  0.42710  0.58100  1.0000
  H   H22       1.0  0.20470  0.34820  0.57780  1.0000
  C   C40       1.0  0.32555  0.63190  0.78400  1.0000
  H   H23       1.0  0.34145  0.55550  0.79280  1.0000
  C   C41       1.0  0.35020  0.72190  0.83400  1.0000
  H   H24       1.0  0.38765  0.71770  0.88320  1.0000
  C   C42       1.0  0.26625  0.78910  0.73280  1.0000
  H   H25       1.0  0.23315  0.83950  0.69790  1.0000
  N   N9        1.0  0.07690  0.29500  0.46490  1.0000
  N   N10       1.0  0.05330  0.44600  0.37960  1.0000
  H   H26       1.0  0.05380  0.51580  0.36150  1.0000
  N   N11       1.0  0.27185  0.67490  0.71700  1.0000
  N   N12       1.0  0.31215  0.82100  0.80210  1.0000
  O   O9        1.0  0.46450  0.45840  0.21340  1.0000
  O   O10       1.0  0.43040  0.27620  0.21970  1.0000
  H   H27       1.0  0.45110  0.21860  0.24340  1.0000
  O   O11       1.0  0.45245  0.11380  0.31610  1.0000
  O   O12       1.0  0.02965  0.06780  0.43470  1.0000
  N   N13       1.0  0.19670  0.94600  0.12040  1.0000
  H   H28       1.0  0.19620  0.01580  0.13850  1.0000
  N   N14       1.0  0.47815  0.17490  0.78300  1.0000
  N   N15       1.0  0.43785  0.32100  0.69790  1.0000
  O   O13       1.0  0.28550  0.95840  0.28660  1.0000
  O   O14       1.0  0.31960  0.77620  0.28030  1.0000
  H   H29       1.0  0.29890  0.71860  0.25660  1.0000
  O   O15       1.0  0.29755  0.61380  0.18390  1.0000
  O   O16       1.0  0.22035  0.56780  0.06530  1.0000
  C   C43       1.0  0.24730  0.64010  0.11950  1.0000
  C   C44       1.0  0.21885  0.76100  0.10870  1.0000
  C   C45       1.0  0.23415  0.85510  0.16320  1.0000
  C   C46       1.0  0.28120  0.86680  0.24820  1.0000
  C   C47       1.0  0.16010  0.90740  0.04390  1.0000
  C   C48       1.0  0.11255  0.97920  0.97830  1.0000
  C   C49       1.0  0.12160  0.09720  0.97510  1.0000
  H   H30       1.0  0.15775  0.13380  0.01670  1.0000
  C   C50       1.0  0.07835  0.16220  0.91170  1.0000
  H   H31       1.0  0.08675  0.24120  0.90980  1.0000
  C   C51       1.0  0.02275  0.10970  0.85130  1.0000
  C   C52       1.0  0.00985  0.99020  0.85550  1.0000
  H   H32       1.0  0.47155  0.95400  0.81570  1.0000
  C   C53       1.0  0.05440  0.92710  0.91900  1.0000
  H   H33       1.0  0.04530  0.84820  0.92220  1.0000
  C   C54       1.0  0.42445  0.13190  0.71600  1.0000
  H   H34       1.0  0.40855  0.05550  0.70720  1.0000
  C   C55       1.0  0.39980  0.22190  0.66600  1.0000
  H   H35       1.0  0.36235  0.21770  0.61680  1.0000
  C   C56       1.0  0.48375  0.28910  0.76720  1.0000
  H   H36       1.0  0.01685  0.33950  0.80210  1.0000
  N   N16       1.0  0.17310  0.79500  0.03510  1.0000
  O   O17       1.0  0.16015  0.93240  0.53130  1.0000
  O   O18       1.0  0.27180  0.85780  0.47620  1.0000
  O   O19       1.0  0.33985  0.06760  0.46870  1.0000
  O   O20       1.0  0.22820  0.14220  0.52380  1.0000
  C   C57       1.0  0.23200  0.93850  0.50270  1.0000
  C   C58       1.0  0.26800  0.06150  0.49730  1.0000
  O   O21       1.0  0.08985  0.43240  0.96870  1.0000
  O   O22       1.0  0.47820  0.35780  0.02380  1.0000
  O   O23       1.0  0.41015  0.56760  0.03130  1.0000
  O   O24       1.0  0.02180  0.64220  0.97620  1.0000
  C   C59       1.0  0.01800  0.43850  0.99730  1.0000
  C   C60       1.0  0.48200  0.56150  0.00270  1.0000
  Pb  Pb1       1.0  0.09707  0.10247  0.57905  1.0000
  Pb  Pb2       1.0  0.40292  0.89753  0.42095  1.0000
  Pb  Pb3       1.0  0.15293  0.60247  0.92095  1.0000
  Pb  Pb4       1.0  0.34708  0.39753  0.07905  1.0000
  C   C61       1.0  0.99730  0.85990  0.61950  1.0000
  C   C62       1.0  0.96885  0.73900  0.60870  1.0000
  C   C63       1.0  0.98415  0.64490  0.66320  1.0000
  C   C64       1.0  0.53120  0.63320  0.74820  1.0000
  C   C65       1.0  0.91010  0.59260  0.54390  1.0000
  C   C66       1.0  0.86255  0.52080  0.47830  1.0000
  C   C67       1.0  0.87160  0.40280  0.47510  1.0000
  H   H37       1.0  0.90775  0.36620  0.51670  1.0000
  C   C68       1.0  0.82835  0.33780  0.41170  1.0000
  H   H38       1.0  0.83675  0.25880  0.40980  1.0000
  C   C69       1.0  0.77275  0.39030  0.35130  1.0000
  C   C70       1.0  0.75985  0.50980  0.35550  1.0000
  H   H39       1.0  0.72155  0.54600  0.31570  1.0000
  C   C71       1.0  0.80440  0.57290  0.41900  1.0000
  H   H40       1.0  0.79530  0.65180  0.42220  1.0000
  C   C72       1.0  0.67445  0.36810  0.21600  1.0000
  H   H41       1.0  0.65855  0.44450  0.20720  1.0000
  C   C73       1.0  0.64980  0.27810  0.16600  1.0000
  H   H42       1.0  0.61235  0.28230  0.11680  1.0000
  C   C74       1.0  0.73375  0.21090  0.26720  1.0000
  H   H43       1.0  0.76685  0.16050  0.30210  1.0000
  N   N17       1.0  0.92310  0.70500  0.53510  1.0000
  N   N18       1.0  0.94670  0.55400  0.62040  1.0000
  H   H44       1.0  0.94620  0.48420  0.63850  1.0000
  N   N19       1.0  0.72815  0.32510  0.28300  1.0000
  N   N20       1.0  0.68785  0.17900  0.19790  1.0000
  O   O25       1.0  0.53550  0.54160  0.78660  1.0000
  O   O26       1.0  0.56960  0.72380  0.78030  1.0000
  H   H45       1.0  0.54890  0.78140  0.75660  1.0000
  O   O27       1.0  0.54755  0.88620  0.68390  1.0000
  O   O28       1.0  0.97035  0.93220  0.56530  1.0000
  C   C75       1.0  0.75270  0.35990  0.88050  1.0000
  C   C76       1.0  0.78115  0.23900  0.89130  1.0000
  C   C77       1.0  0.76585  0.14490  0.83680  1.0000
  C   C78       1.0  0.71880  0.13320  0.75180  1.0000
  C   C79       1.0  0.83990  0.09260  0.95610  1.0000
  C   C80       1.0  0.88745  0.02080  0.02170  1.0000
  C   C81       1.0  0.87840  0.90280  0.02490  1.0000
  H   H46       1.0  0.84225  0.86620  0.98330  1.0000
  C   C82       1.0  0.92165  0.83780  0.08830  1.0000
  H   H47       1.0  0.91325  0.75880  0.09020  1.0000
  C   C83       1.0  0.97725  0.89030  0.14870  1.0000
  C   C84       1.0  0.99015  0.00980  0.14450  1.0000
  H   H48       1.0  0.52845  0.04600  0.18430  1.0000
  C   C85       1.0  0.94560  0.07290  0.08100  1.0000
  H   H49       1.0  0.95470  0.15180  0.07780  1.0000
  C   C86       1.0  0.57555  0.86810  0.28400  1.0000
  H   H50       1.0  0.59145  0.94450  0.29280  1.0000
  C   C87       1.0  0.60020  0.77810  0.33400  1.0000
  H   H51       1.0  0.63765  0.78230  0.38320  1.0000
  C   C88       1.0  0.51625  0.71090  0.23280  1.0000
  H   H52       1.0  0.98315  0.66050  0.19790  1.0000
  N   N21       1.0  0.82690  0.20500  0.96490  1.0000
  N   N22       1.0  0.80330  0.05400  0.87960  1.0000
  H   H53       1.0  0.80380  0.98420  0.86150  1.0000
  N   N23       1.0  0.52185  0.82510  0.21700  1.0000
  N   N24       1.0  0.56215  0.67900  0.30210  1.0000
  O   O29       1.0  0.71450  0.04160  0.71340  1.0000
  O   O30       1.0  0.68040  0.22380  0.71970  1.0000
  H   H54       1.0  0.70110  0.28140  0.74340  1.0000
  O   O31       1.0  0.70245  0.38620  0.81610  1.0000
  O   O32       1.0  0.77965  0.43220  0.93470  1.0000
  C   C89       1.0  0.50270  0.14010  0.38050  1.0000
  C   C90       1.0  0.53115  0.26100  0.39130  1.0000
  C   C91       1.0  0.51585  0.35510  0.33680  1.0000
  C   C92       1.0  0.96880  0.36680  0.25180  1.0000
  C   C93       1.0  0.58990  0.40740  0.45610  1.0000
  C   C94       1.0  0.63745  0.47920  0.52170  1.0000
  C   C95       1.0  0.62840  0.59720  0.52490  1.0000
  H   H55       1.0  0.59225  0.63380  0.48330  1.0000
  C   C96       1.0  0.67165  0.66220  0.58830  1.0000
  H   H56       1.0  0.66325  0.74120  0.59020  1.0000
  C   C97       1.0  0.72725  0.60970  0.64870  1.0000
  C   C98       1.0  0.74015  0.49020  0.64450  1.0000
  H   H57       1.0  0.77845  0.45400  0.68430  1.0000
  C   C99       1.0  0.69560  0.42710  0.58100  1.0000
  H   H58       1.0  0.70470  0.34820  0.57780  1.0000
  C   C100      1.0  0.82555  0.63190  0.78400  1.0000
  H   H59       1.0  0.84145  0.55550  0.79280  1.0000
  C   C101      1.0  0.85020  0.72190  0.83400  1.0000
  H   H60       1.0  0.88765  0.71770  0.88320  1.0000
  C   C102      1.0  0.76625  0.78910  0.73280  1.0000
  H   H61       1.0  0.73315  0.83950  0.69790  1.0000
  N   N25       1.0  0.57690  0.29500  0.46490  1.0000
  N   N26       1.0  0.55330  0.44600  0.37960  1.0000
  H   H62       1.0  0.55380  0.51580  0.36150  1.0000
  N   N27       1.0  0.77185  0.67490  0.71700  1.0000
  N   N28       1.0  0.81215  0.82100  0.80210  1.0000
  O   O33       1.0  0.96450  0.45840  0.21340  1.0000
  O   O34       1.0  0.93040  0.27620  0.21970  1.0000
  H   H63       1.0  0.95110  0.21860  0.24340  1.0000
  O   O35       1.0  0.95245  0.11380  0.31610  1.0000
  O   O36       1.0  0.52965  0.06780  0.43470  1.0000
  N   N29       1.0  0.69670  0.94600  0.12040  1.0000
  H   H64       1.0  0.69620  0.01580  0.13850  1.0000
  N   N30       1.0  0.97815  0.17490  0.78300  1.0000
  N   N31       1.0  0.93785  0.32100  0.69790  1.0000
  O   O37       1.0  0.78550  0.95840  0.28660  1.0000
  O   O38       1.0  0.81960  0.77620  0.28030  1.0000
  H   H65       1.0  0.79890  0.71860  0.25660  1.0000
  O   O39       1.0  0.79755  0.61380  0.18390  1.0000
  O   O40       1.0  0.72035  0.56780  0.06530  1.0000
  C   C103      1.0  0.74730  0.64010  0.11950  1.0000
  C   C104      1.0  0.71885  0.76100  0.10870  1.0000
  C   C105      1.0  0.73415  0.85510  0.16320  1.0000
  C   C106      1.0  0.78120  0.86680  0.24820  1.0000
  C   C107      1.0  0.66010  0.90740  0.04390  1.0000
  C   C108      1.0  0.61255  0.97920  0.97830  1.0000
  C   C109      1.0  0.62160  0.09720  0.97510  1.0000
  H   H66       1.0  0.65775  0.13380  0.01670  1.0000
  C   C110      1.0  0.57835  0.16220  0.91170  1.0000
  H   H67       1.0  0.58675  0.24120  0.90980  1.0000
  C   C111      1.0  0.52275  0.10970  0.85130  1.0000
  C   C112      1.0  0.50985  0.99020  0.85550  1.0000
  H   H68       1.0  0.97155  0.95400  0.81570  1.0000
  C   C113      1.0  0.55440  0.92710  0.91900  1.0000
  H   H69       1.0  0.54530  0.84820  0.92220  1.0000
  C   C114      1.0  0.92445  0.13190  0.71600  1.0000
  H   H70       1.0  0.90855  0.05550  0.70720  1.0000
  C   C115      1.0  0.89980  0.22190  0.66600  1.0000
  H   H71       1.0  0.86235  0.21770  0.61680  1.0000
  C   C116      1.0  0.98375  0.28910  0.76720  1.0000
  H   H72       1.0  0.51685  0.33950  0.80210  1.0000
  N   N32       1.0  0.67310  0.79500  0.03510  1.0000
  O   O41       1.0  0.66015  0.93240  0.53130  1.0000
  O   O42       1.0  0.77180  0.85780  0.47620  1.0000
  O   O43       1.0  0.83985  0.06760  0.46870  1.0000
  O   O44       1.0  0.72820  0.14220  0.52380  1.0000
  C   C117      1.0  0.73200  0.93850  0.50270  1.0000
  C   C118      1.0  0.76800  0.06150  0.49730  1.0000
  O   O45       1.0  0.58985  0.43240  0.96870  1.0000
  O   O46       1.0  0.97820  0.35780  0.02380  1.0000
  O   O47       1.0  0.91015  0.56760  0.03130  1.0000
  O   O48       1.0  0.52180  0.64220  0.97620  1.0000
  C   C119      1.0  0.51800  0.43850  0.99730  1.0000
  C   C120      1.0  0.98200  0.56150  0.00270  1.0000
  Pb  Pb5       1.0  0.59708  0.10247  0.57905  1.0000
  Pb  Pb6       1.0  0.90292  0.89753  0.42095  1.0000
  Pb  Pb7       1.0  0.65293  0.60247  0.92095  1.0000
  Pb  Pb8       1.0  0.84708  0.39753  0.07905  1.0000
