data_image0
_chemical_formula_structural       SO2CHCHCHCHCHCHOCHC4HOC2O2CSO2CHCHCHCHCHCHOCHC4HOC2O2COCHC4HOC2O2CSO2CHCHCHCHCHCHSO2CHCHCHCHCHCHOCHC4HOC2O2CCa4
_chemical_formula_sum              "S4 O24 C56 H32 Ca4"
_cell_length_a       8.722
_cell_length_b       27.5302
_cell_length_c       11.2194
_cell_angle_alpha    90
_cell_angle_beta     107.284
_cell_angle_gamma    90

_space_group_name_H-M_alt    "P 1"
_space_group_IT_number       1

loop_
  _space_group_symop_operation_xyz
  'x, y, z'

loop_
  _atom_site_type_symbol
  _atom_site_label
  _atom_site_symmetry_multiplicity
  _atom_site_fract_x
  _atom_site_fract_y
  _atom_site_fract_z
  _atom_site_occupancy
  S   S1        1.0  0.80002  0.74928  0.19460  1.0000
  O   O1        1.0  0.37800  0.54239  0.05858  1.0000
  O   O2        1.0  0.41780  0.94312  0.87611  1.0000
  C   C1        1.0  0.51460  0.86621  0.14870  1.0000
  H   H1        1.0  0.45320  0.88160  0.19250  1.0000
  C   C2        1.0  0.72650  0.67174  0.03470  1.0000
  H   H2        1.0  0.80950  0.68220  0.00460  1.0000
  C   C3        1.0  0.47910  0.64026  0.12650  1.0000
  H   H3        1.0  0.39790  0.62930  0.15800  1.0000
  C   C4        1.0  0.59520  0.82351  0.19450  1.0000
  H   H4        1.0  0.58650  0.80980  0.26800  1.0000
  C   C5        1.0  0.55940  0.68295  0.17100  1.0000
  H   H5        1.0  0.53000  0.70140  0.23010  1.0000
  C   C6        1.0  0.70120  0.82068  0.01800  1.0000
  H   H6        1.0  0.76370  0.80540  0.97490  1.0000
  O   O3        1.0  0.42501  0.55507  0.87584  1.0000
  C   C7        1.0  0.64220  0.62972  0.98890  1.0000
  H   H7        1.0  0.66790  0.61210  0.92670  1.0000
  C   C8        1.0  0.52540  0.88612  0.03720  1.0000
  C   C9        1.0  0.51960  0.61350  0.03460  1.0000
  C   C10       1.0  0.43340  0.56639  0.98570  1.0000
  C   C11       1.0  0.61830  0.86304  0.97230  1.0000
  H   H8        1.0  0.62490  0.87620  0.89760  1.0000
  O   O4        1.0  0.39950  0.95893  0.06741  1.0000
  C   C12       1.0  0.68890  0.80151  0.12940  1.0000
  C   C13       1.0  0.68510  0.69799  0.12630  1.0000
  O   O5        1.0  0.94514  0.74898  0.15836  1.0000
  O   O6        1.0  0.81140  0.74874  0.32532  1.0000
  C   C14       1.0  0.44060  0.93341  0.98960  1.0000
  S   S2        1.0  0.19998  0.24928  0.30540  1.0000
  O   O7        1.0  0.62200  0.04239  0.44142  1.0000
  O   O8        1.0  0.58220  0.44312  0.62389  1.0000
  C   C15       1.0  0.48540  0.36621  0.35130  1.0000
  H   H9        1.0  0.54680  0.38160  0.30750  1.0000
  C   C16       1.0  0.27350  0.17174  0.46530  1.0000
  H   H10       1.0  0.19050  0.18220  0.49540  1.0000
  C   C17       1.0  0.52090  0.14026  0.37350  1.0000
  H   H11       1.0  0.60210  0.12930  0.34200  1.0000
  C   C18       1.0  0.40480  0.32351  0.30550  1.0000
  H   H12       1.0  0.41350  0.30980  0.23200  1.0000
  C   C19       1.0  0.44060  0.18295  0.32900  1.0000
  H   H13       1.0  0.47000  0.20140  0.26990  1.0000
  C   C20       1.0  0.29880  0.32068  0.48200  1.0000
  H   H14       1.0  0.23630  0.30540  0.52510  1.0000
  O   O9        1.0  0.57499  0.05507  0.62416  1.0000
  C   C21       1.0  0.35780  0.12972  0.51110  1.0000
  H   H15       1.0  0.33210  0.11210  0.57330  1.0000
  C   C22       1.0  0.47460  0.38612  0.46280  1.0000
  C   C23       1.0  0.48040  0.11350  0.46540  1.0000
  C   C24       1.0  0.56660  0.06639  0.51430  1.0000
  C   C25       1.0  0.38170  0.36304  0.52770  1.0000
  H   H16       1.0  0.37510  0.37620  0.60240  1.0000
  O   O10       1.0  0.60050  0.45893  0.43259  1.0000
  C   C26       1.0  0.31110  0.30151  0.37060  1.0000
  C   C27       1.0  0.31490  0.19799  0.37370  1.0000
  O   O11       1.0  0.05486  0.24898  0.34164  1.0000
  O   O12       1.0  0.18860  0.24874  0.17468  1.0000
  C   C28       1.0  0.55940  0.43341  0.51040  1.0000
  O   O13       1.0  0.57499  0.44493  0.12416  1.0000
  C   C29       1.0  0.35780  0.37028  0.01110  1.0000
  H   H17       1.0  0.33210  0.38790  0.07330  1.0000
  C   C30       1.0  0.47460  0.11388  0.96280  1.0000
  C   C31       1.0  0.48040  0.38650  0.96540  1.0000
  C   C32       1.0  0.56660  0.43361  0.01430  1.0000
  C   C33       1.0  0.38170  0.13696  0.02770  1.0000
  H   H18       1.0  0.37510  0.12380  0.10240  1.0000
  O   O14       1.0  0.60050  0.04107  0.93259  1.0000
  C   C34       1.0  0.31110  0.19849  0.87060  1.0000
  C   C35       1.0  0.31490  0.30201  0.87370  1.0000
  O   O15       1.0  0.05486  0.25102  0.84164  1.0000
  O   O16       1.0  0.18860  0.25126  0.67468  1.0000
  C   C36       1.0  0.55940  0.06659  0.01040  1.0000
  S   S3        1.0  0.19998  0.25072  0.80540  1.0000
  O   O17       1.0  0.62200  0.45761  0.94142  1.0000
  O   O18       1.0  0.58220  0.05688  0.12389  1.0000
  C   C37       1.0  0.48540  0.13379  0.85130  1.0000
  H   H19       1.0  0.54680  0.11840  0.80750  1.0000
  C   C38       1.0  0.27350  0.32826  0.96530  1.0000
  H   H20       1.0  0.19050  0.31780  0.99540  1.0000
  C   C39       1.0  0.52090  0.35974  0.87350  1.0000
  H   H21       1.0  0.60210  0.37070  0.84200  1.0000
  C   C40       1.0  0.40480  0.17649  0.80550  1.0000
  H   H22       1.0  0.41350  0.19020  0.73200  1.0000
  C   C41       1.0  0.44060  0.31705  0.82900  1.0000
  H   H23       1.0  0.47000  0.29860  0.76990  1.0000
  C   C42       1.0  0.29880  0.17932  0.98200  1.0000
  H   H24       1.0  0.23630  0.19460  0.02510  1.0000
  S   S4        1.0  0.80002  0.75072  0.69460  1.0000
  O   O19       1.0  0.37800  0.95761  0.55858  1.0000
  O   O20       1.0  0.41780  0.55688  0.37611  1.0000
  C   C43       1.0  0.51460  0.63379  0.64870  1.0000
  H   H25       1.0  0.45320  0.61840  0.69250  1.0000
  C   C44       1.0  0.72650  0.82826  0.53470  1.0000
  H   H26       1.0  0.80950  0.81780  0.50460  1.0000
  C   C45       1.0  0.47910  0.85974  0.62650  1.0000
  H   H27       1.0  0.39790  0.87070  0.65800  1.0000
  C   C46       1.0  0.59520  0.67649  0.69450  1.0000
  H   H28       1.0  0.58650  0.69020  0.76800  1.0000
  C   C47       1.0  0.55940  0.81705  0.67100  1.0000
  H   H29       1.0  0.53000  0.79860  0.73010  1.0000
  C   C48       1.0  0.70120  0.67932  0.51800  1.0000
  H   H30       1.0  0.76370  0.69460  0.47490  1.0000
  O   O21       1.0  0.42501  0.94493  0.37584  1.0000
  C   C49       1.0  0.64220  0.87028  0.48890  1.0000
  H   H31       1.0  0.66790  0.88790  0.42670  1.0000
  C   C50       1.0  0.52540  0.61388  0.53720  1.0000
  C   C51       1.0  0.51960  0.88650  0.53460  1.0000
  C   C52       1.0  0.43340  0.93361  0.48570  1.0000
  C   C53       1.0  0.61830  0.63696  0.47230  1.0000
  H   H32       1.0  0.62490  0.62380  0.39760  1.0000
  O   O22       1.0  0.39950  0.54107  0.56741  1.0000
  C   C54       1.0  0.68890  0.69849  0.62940  1.0000
  C   C55       1.0  0.68510  0.80201  0.62630  1.0000
  O   O23       1.0  0.94514  0.75102  0.65836  1.0000
  O   O24       1.0  0.81140  0.75126  0.82532  1.0000
  C   C56       1.0  0.44060  0.56659  0.48960  1.0000
  Ca  Ca1       1.0  0.48428  0.49988  0.24585  1.0000
  Ca  Ca2       1.0  0.48428  0.00012  0.74585  1.0000
  Ca  Ca3       1.0  0.51572  0.50012  0.75415  1.0000
  Ca  Ca4       1.0  0.51572  0.99988  0.25415  1.0000
