data_image0
_chemical_formula_structural       C3HCHC2HCHC2HCHC2HCHCO6SC3HCHC2HCHC2HCHC2HCHCO6SO6SC3HCHC2HCHC2HCHC2HCHC4HCHC2HCHC2HCHC2HCHCO6SCONCHO2NC2HOSr5
_chemical_formula_sum              "C60 H34 O28 S4 N2 Sr5"
_cell_length_a       13.9492
_cell_length_b       15.6692
_cell_length_c       15.9071
_cell_angle_alpha    60.919
_cell_angle_beta     72.626
_cell_angle_gamma    88.389

_space_group_name_H-M_alt    "P 1"
_space_group_IT_number       1

loop_
  _space_group_symop_operation_xyz
  'x, y, z'

loop_
  _atom_site_type_symbol
  _atom_site_label
  _atom_site_symmetry_multiplicity
  _atom_site_fract_x
  _atom_site_fract_y
  _atom_site_fract_z
  _atom_site_occupancy
  C   C1        1.0  0.05680  0.10580  0.72660  1.0000
  C   C2        1.0  0.96220  0.14070  0.70030  1.0000
  C   C3        1.0  0.86970  0.07930  0.75450  1.0000
  H   H1        1.0  0.86510  0.01690  0.80960  1.0000
  C   C4        1.0  0.78420  0.11070  0.72660  1.0000
  H   H2        1.0  0.72250  0.06950  0.76120  1.0000
  C   C5        1.0  0.79330  0.20580  0.64560  1.0000
  C   C6        1.0  0.88340  0.26890  0.59250  1.0000
  H   H3        1.0  0.88740  0.33250  0.53940  1.0000
  C   C7        1.0  0.96860  0.23480  0.62080  1.0000
  H   H4        1.0  0.03040  0.27600  0.58580  1.0000
  C   C8        1.0  0.69090  0.19350  0.52790  1.0000
  C   C9        1.0  0.62230  0.11190  0.56360  1.0000
  H   H5        1.0  0.57210  0.08520  0.62690  1.0000
  C   C10       1.0  0.63080  0.07140  0.50170  1.0000
  H   H6        1.0  0.58440  0.01750  0.52320  1.0000
  C   C11       1.0  0.70790  0.10990  0.40720  1.0000
  C   C12       1.0  0.77290  0.18990  0.37550  1.0000
  H   H7        1.0  0.82340  0.21600  0.31250  1.0000
  C   C13       1.0  0.76730  0.23480  0.43360  1.0000
  H   H8        1.0  0.81260  0.29000  0.41050  1.0000
  C   C14       1.0  0.71780  0.05900  0.34720  1.0000
  O   O1        1.0  0.14030  0.15840  0.66480  1.0000
  O   O2        1.0  0.04890  0.02560  0.80830  1.0000
  O   O3        1.0  0.59520  0.20030  0.69240  1.0000
  O   O4        1.0  0.70620  0.35040  0.54230  1.0000
  O   O5        1.0  0.79560  0.08580  0.27060  1.0000
  O   O6        1.0  0.64770  0.99300  0.37230  1.0000
  S   S1        1.0  0.68741  0.24587  0.60475  1.0000
  C   C15       1.0  0.14940  0.84860  0.03100  1.0000
  C   C16       1.0  0.22550  0.77930  0.06010  1.0000
  C   C17       1.0  0.29780  0.76580  0.98830  1.0000
  H   H9        1.0  0.29850  0.79770  0.92120  1.0000
  C   C18       1.0  0.36870  0.70500  0.01630  1.0000
  H   H10       1.0  0.41800  0.69620  0.96810  1.0000
  C   C19       1.0  0.36680  0.65700  0.11640  1.0000
  C   C20       1.0  0.29450  0.66930  0.18960  1.0000
  H   H11       1.0  0.29440  0.63750  0.25650  1.0000
  C   C21       1.0  0.22280  0.72940  0.16170  1.0000
  H   H12       1.0  0.17250  0.73690  0.21040  1.0000
  C   C22       1.0  0.56360  0.66110  0.12380  1.0000
  C   C23       1.0  0.63710  0.70430  0.02780  1.0000
  H   H13       1.0  0.63010  0.69230  0.97800  1.0000
  C   C24       1.0  0.72030  0.76530  0.00780  1.0000
  H   H14       1.0  0.77120  0.79230  0.94490  1.0000
  C   C25       1.0  0.72890  0.78670  0.08070  1.0000
  C   C26       1.0  0.65310  0.74500  0.17440  1.0000
  H   H15       1.0  0.65790  0.75910  0.22360  1.0000
  C   C27       1.0  0.57080  0.68280  0.19530  1.0000
  H   H16       1.0  0.52000  0.65560  0.25830  1.0000
  C   C28       1.0  0.82100  0.85470  0.05560  1.0000
  O   O7        1.0  0.15110  0.89280  0.93890  1.0000
  O   O8        1.0  0.08830  0.86050  0.09680  1.0000
  O   O9        1.0  0.42220  0.51390  0.25910  1.0000
  O   O10       1.0  0.48940  0.53980  0.08420  1.0000
  O   O11       1.0  0.89460  0.87430  0.97930  1.0000
  O   O12       1.0  0.81770  0.88590  0.11610  1.0000
  S   S2        1.0  0.45909  0.57962  0.15136  1.0000
  O   O13       1.0  0.85970  0.84160  0.33520  1.0000
  O   O14       1.0  0.95110  0.97440  0.19170  1.0000
  O   O15       1.0  0.40480  0.79970  0.30760  1.0000
  O   O16       1.0  0.29380  0.64960  0.45770  1.0000
  O   O17       1.0  0.20440  0.91420  0.72940  1.0000
  O   O18       1.0  0.35230  0.00700  0.62770  1.0000
  S   S3        1.0  0.31259  0.75413  0.39525  1.0000
  C   C29       1.0  0.94320  0.89420  0.27340  1.0000
  C   C30       1.0  0.03780  0.85930  0.29970  1.0000
  C   C31       1.0  0.13030  0.92070  0.24550  1.0000
  H   H17       1.0  0.13490  0.98310  0.19040  1.0000
  C   C32       1.0  0.21580  0.88930  0.27340  1.0000
  H   H18       1.0  0.27750  0.93050  0.23880  1.0000
  C   C33       1.0  0.20670  0.79420  0.35440  1.0000
  C   C34       1.0  0.11660  0.73110  0.40750  1.0000
  H   H19       1.0  0.11260  0.66750  0.46060  1.0000
  C   C35       1.0  0.03140  0.76520  0.37920  1.0000
  H   H20       1.0  0.96960  0.72400  0.41420  1.0000
  C   C36       1.0  0.30910  0.80650  0.47210  1.0000
  C   C37       1.0  0.37770  0.88810  0.43640  1.0000
  H   H21       1.0  0.42790  0.91480  0.37310  1.0000
  C   C38       1.0  0.36920  0.92860  0.49830  1.0000
  H   H22       1.0  0.41560  0.98250  0.47680  1.0000
  C   C39       1.0  0.29210  0.89010  0.59280  1.0000
  C   C40       1.0  0.22710  0.81010  0.62450  1.0000
  H   H23       1.0  0.17660  0.78400  0.68750  1.0000
  C   C41       1.0  0.23270  0.76520  0.56640  1.0000
  H   H24       1.0  0.18740  0.71000  0.58950  1.0000
  C   C42       1.0  0.28220  0.94100  0.65280  1.0000
  C   C43       1.0  0.85060  0.15140  0.96900  1.0000
  C   C44       1.0  0.77450  0.22070  0.93990  1.0000
  C   C45       1.0  0.70220  0.23420  0.01170  1.0000
  H   H25       1.0  0.70150  0.20230  0.07880  1.0000
  C   C46       1.0  0.63130  0.29500  0.98370  1.0000
  H   H26       1.0  0.58200  0.30380  0.03190  1.0000
  C   C47       1.0  0.63320  0.34300  0.88360  1.0000
  C   C48       1.0  0.70550  0.33070  0.81040  1.0000
  H   H27       1.0  0.70560  0.36250  0.74350  1.0000
  C   C49       1.0  0.77720  0.27060  0.83830  1.0000
  H   H28       1.0  0.82750  0.26310  0.78960  1.0000
  C   C50       1.0  0.43640  0.33890  0.87620  1.0000
  C   C51       1.0  0.36290  0.29570  0.97220  1.0000
  H   H29       1.0  0.36990  0.30770  0.02200  1.0000
  C   C52       1.0  0.27970  0.23470  0.99220  1.0000
  H   H30       1.0  0.22880  0.20770  0.05510  1.0000
  C   C53       1.0  0.27110  0.21330  0.91930  1.0000
  C   C54       1.0  0.34690  0.25500  0.82560  1.0000
  H   H31       1.0  0.34210  0.24090  0.77640  1.0000
  C   C55       1.0  0.42920  0.31720  0.80470  1.0000
  H   H32       1.0  0.48000  0.34440  0.74170  1.0000
  C   C56       1.0  0.17900  0.14530  0.94440  1.0000
  O   O19       1.0  0.84890  0.10720  0.06110  1.0000
  O   O20       1.0  0.91170  0.13950  0.90320  1.0000
  O   O21       1.0  0.57780  0.48610  0.74090  1.0000
  O   O22       1.0  0.51060  0.46020  0.91580  1.0000
  O   O23       1.0  0.10540  0.12570  0.02070  1.0000
  O   O24       1.0  0.18230  0.11410  0.88390  1.0000
  S   S4        1.0  0.54091  0.42038  0.84864  1.0000
  C   C57       1.0  0.44070  0.04970  0.86010  1.0000
  O   O25       1.0  0.39270  0.00600  0.84500  1.0000
  N   N1        1.0  0.47940  0.01440  0.94000  1.0000
  C   C58       1.0  0.91300  0.79300  0.77000  1.0000
  H   H33       1.0  0.86900  0.78370  0.74010  1.0000
  O   O26       1.0  0.97200  0.89510  0.71940  1.0000
  O   O27       1.0  0.60730  0.99400  0.15500  1.0000
  N   N2        1.0  0.52060  0.98560  0.06000  1.0000
  C   C59       1.0  0.55930  0.95030  0.13990  1.0000
  C   C60       1.0  0.08700  0.20700  0.23000  1.0000
  H   H34       1.0  0.13100  0.21630  0.25990  1.0000
  O   O28       1.0  0.02800  0.10490  0.28060  1.0000
  Sr  Sr1       1.0  0.03834  0.83226  0.87013  1.0000
  Sr  Sr2       1.0  0.25196  0.04881  0.76694  1.0000
  Sr  Sr3       1.0  0.96166  0.16774  0.12987  1.0000
  Sr  Sr4       1.0  0.74804  0.95119  0.23306  1.0000
  Sr  Sr5       1.0  0.00000  0.00000  0.00000  1.0000
