data_image0
_chemical_formula_structural       CHCHC2HCHC2HCHCHCHN4CHCHC2HCHN2CHCHC2HCHN2CHCHC2HCHC2HCHCHCHN4C2HC2HC2HC2O7S2C2HC2HC2HC2O7Cd3
_chemical_formula_sum              "C46 H30 N12 O14 S2 Cd3"
_cell_length_a       10.1392
_cell_length_b       13.608
_cell_length_c       13.647
_cell_angle_alpha    73.33
_cell_angle_beta     82.47
_cell_angle_gamma    81.922

_space_group_name_H-M_alt    "P 1"
_space_group_IT_number       1

loop_
  _space_group_symop_operation_xyz
  'x, y, z'

loop_
  _atom_site_type_symbol
  _atom_site_label
  _atom_site_symmetry_multiplicity
  _atom_site_fract_x
  _atom_site_fract_y
  _atom_site_fract_z
  _atom_site_occupancy
  C   C1        1.0  0.67150  0.31410  0.34500  1.0000
  H   H1        1.0  0.66249  0.25545  0.39978  1.0000
  C   C2        1.0  0.67530  0.30490  0.24610  1.0000
  H   H2        1.0  0.67122  0.24130  0.23461  1.0000
  C   C3        1.0  0.68520  0.39330  0.16470  1.0000
  C   C4        1.0  0.69530  0.48650  0.18490  1.0000
  H   H3        1.0  0.70342  0.54659  0.13172  1.0000
  C   C5        1.0  0.69300  0.48730  0.28590  1.0000
  H   H4        1.0  0.70067  0.54924  0.29960  1.0000
  C   C6        1.0  0.65720  0.44730  0.89710  1.0000
  C   C7        1.0  0.64290  0.35280  0.88200  1.0000
  H   H5        1.0  0.63629  0.29418  0.93719  1.0000
  C   C8        1.0  0.63870  0.34850  0.78230  1.0000
  H   H6        1.0  0.63094  0.28513  0.77158  1.0000
  C   C9        1.0  0.65820  0.52140  0.71610  1.0000
  H   H7        1.0  0.66376  0.57906  0.65978  1.0000
  C   C10       1.0  0.66360  0.53270  0.81340  1.0000
  H   H8        1.0  0.67144  0.59696  0.82191  1.0000
  N   N1        1.0  0.68020  0.40290  0.36540  1.0000
  N   N2        1.0  0.68380  0.38000  0.06430  1.0000
  N   N3        1.0  0.66130  0.46260  0.99640  1.0000
  N   N4        1.0  0.64530  0.43120  0.70030  1.0000
  C   C11       1.0  0.00200  0.24530  0.89410  1.0000
  H   H9        1.0  0.99185  0.22487  0.83628  1.0000
  C   C12       1.0  0.99870  0.34970  0.88410  1.0000
  H   H10       1.0  0.98751  0.39834  0.82133  1.0000
  C   C13       1.0  0.01260  0.37910  0.97090  1.0000
  C   C14       1.0  0.03330  0.30490  0.06250  1.0000
  H   H11       1.0  0.04561  0.32333  0.12098  1.0000
  C   C15       1.0  0.03530  0.20220  0.06480  1.0000
  H   H12       1.0  0.04861  0.15191  0.12630  1.0000
  N   N5        1.0  0.01890  0.17220  0.98210  1.0000
  N   N6        1.0  0.00460  0.48920  0.95830  1.0000
  C   C16       1.0  0.99800  0.75470  0.10590  1.0000
  H   H13       1.0  0.00815  0.77513  0.16372  1.0000
  C   C17       1.0  0.00130  0.65030  0.11590  1.0000
  H   H14       1.0  0.01249  0.60166  0.17867  1.0000
  C   C18       1.0  0.98740  0.62090  0.02910  1.0000
  C   C19       1.0  0.96670  0.69510  0.93750  1.0000
  H   H15       1.0  0.95439  0.67667  0.87902  1.0000
  C   C20       1.0  0.96470  0.79780  0.93520  1.0000
  H   H16       1.0  0.95140  0.84808  0.87370  1.0000
  N   N7        1.0  0.98110  0.82780  0.01790  1.0000
  N   N8        1.0  0.99540  0.51080  0.04170  1.0000
  C   C21       1.0  0.32850  0.68590  0.65500  1.0000
  H   H17       1.0  0.33751  0.74455  0.60022  1.0000
  C   C22       1.0  0.32470  0.69510  0.75390  1.0000
  H   H18       1.0  0.32879  0.75870  0.76539  1.0000
  C   C23       1.0  0.31480  0.60670  0.83530  1.0000
  C   C24       1.0  0.30470  0.51350  0.81510  1.0000
  H   H19       1.0  0.29658  0.45341  0.86828  1.0000
  C   C25       1.0  0.30700  0.51270  0.71410  1.0000
  H   H20       1.0  0.29933  0.45076  0.70040  1.0000
  C   C26       1.0  0.34280  0.55270  0.10290  1.0000
  C   C27       1.0  0.35710  0.64720  0.11800  1.0000
  H   H21       1.0  0.36371  0.70582  0.06281  1.0000
  C   C28       1.0  0.36130  0.65150  0.21770  1.0000
  H   H22       1.0  0.36906  0.71487  0.22842  1.0000
  C   C29       1.0  0.34180  0.47860  0.28390  1.0000
  H   H23       1.0  0.33624  0.42094  0.34022  1.0000
  C   C30       1.0  0.33640  0.46730  0.18660  1.0000
  H   H24       1.0  0.32856  0.40304  0.17809  1.0000
  N   N9        1.0  0.31980  0.59710  0.63460  1.0000
  N   N10       1.0  0.31620  0.62000  0.93570  1.0000
  N   N11       1.0  0.33870  0.53740  0.00360  1.0000
  N   N12       1.0  0.35470  0.56880  0.29970  1.0000
  C   C31       1.0  0.04780  0.26520  0.60290  1.0000
  C   C32       1.0  0.06130  0.16190  0.66000  1.0000
  H   H25       1.0  0.98702  0.12517  0.67989  1.0000
  C   C33       1.0  0.18720  0.11430  0.68690  1.0000
  C   C34       1.0  0.29890  0.16790  0.65490  1.0000
  H   H26       1.0  0.38313  0.13469  0.67107  1.0000
  C   C35       1.0  0.28520  0.27140  0.59870  1.0000
  C   C36       1.0  0.15880  0.32050  0.57300  1.0000
  H   H27       1.0  0.14883  0.38966  0.53618  1.0000
  C   C37       1.0  0.91130  0.31590  0.57410  1.0000
  C   C38       1.0  0.40720  0.32770  0.56800  1.0000
  O   O1        1.0  0.89550  0.41160  0.53370  1.0000
  O   O2        1.0  0.81730  0.26020  0.59280  1.0000
  O   O3        1.0  0.39780  0.42110  0.51760  1.0000
  O   O4        1.0  0.51790  0.27920  0.59570  1.0000
  O   O5        1.0  0.34250  0.94510  0.74830  1.0000
  O   O6        1.0  0.10760  0.93200  0.73720  1.0000
  O   O7        1.0  0.17310  0.99520  0.87200  1.0000
  S   S1        1.0  0.20284  0.98560  0.76617  1.0000
  S   S2        1.0  0.79716  0.01440  0.23383  1.0000
  C   C39       1.0  0.95220  0.73480  0.39710  1.0000
  C   C40       1.0  0.93870  0.83810  0.34000  1.0000
  H   H28       1.0  0.01298  0.87483  0.32011  1.0000
  C   C41       1.0  0.81280  0.88570  0.31310  1.0000
  C   C42       1.0  0.70110  0.83210  0.34510  1.0000
  H   H29       1.0  0.61687  0.86531  0.32893  1.0000
  C   C43       1.0  0.71480  0.72860  0.40130  1.0000
  C   C44       1.0  0.84120  0.67950  0.42700  1.0000
  H   H30       1.0  0.85117  0.61034  0.46382  1.0000
  C   C45       1.0  0.08870  0.68410  0.42590  1.0000
  C   C46       1.0  0.59280  0.67230  0.43200  1.0000
  O   O8        1.0  0.10450  0.58840  0.46630  1.0000
  O   O9        1.0  0.18270  0.73980  0.40720  1.0000
  O   O10       1.0  0.60220  0.57890  0.48240  1.0000
  O   O11       1.0  0.48210  0.72080  0.40430  1.0000
  O   O12       1.0  0.65750  0.05490  0.25170  1.0000
  O   O13       1.0  0.89240  0.06800  0.26280  1.0000
  O   O14       1.0  0.82690  0.00480  0.12800  1.0000
  Cd  Cd1       1.0  0.66134  0.40435  0.53674  1.0000
  Cd  Cd2       1.0  0.33866  0.59565  0.46326  1.0000
  Cd  Cd3       1.0  0.00000  0.00000  0.00000  1.0000
