data_image0
_chemical_formula_structural       O3C2HOC2HOCO2CHOCO2C3HC3HOC2HCOC3HCOC3O3C2HOC2HOCO2CHOCO2C3HC2HOC2OCOCO3CHCHC2HOC2HCHC2HOC3OCOCO3COCHCHC2HOC3OCOCO2COCOCO3CHCHC2HOC2Ca9O2Ca3
_chemical_formula_sum              "O50 C72 H24 Ca12"
_cell_length_a       16.2817
_cell_length_b       13.5141
_cell_length_c       15.7591
_cell_angle_alpha    90
_cell_angle_beta     93.254
_cell_angle_gamma    90

_space_group_name_H-M_alt    "P 1"
_space_group_IT_number       1

loop_
  _space_group_symop_operation_xyz
  'x, y, z'

loop_
  _atom_site_type_symbol
  _atom_site_label
  _atom_site_symmetry_multiplicity
  _atom_site_fract_x
  _atom_site_fract_y
  _atom_site_fract_z
  _atom_site_occupancy
  O   O1        1.0  0.93009  0.33969  0.66000  1.0000
  O   O2        1.0  0.01757  0.26760  0.58059  1.0000
  O   O3        1.0  0.15738  0.50236  0.96592  1.0000
  C   C1        1.0  0.01425  0.33063  0.64980  1.0000
  C   C2        1.0  0.16975  0.29163  0.87781  1.0000
  H   H1        1.0  0.21520  0.29920  0.92972  1.0000
  O   O4        1.0  0.02245  0.44978  0.97727  1.0000
  C   C3        1.0  0.06027  0.29436  0.73202  1.0000
  C   C4        1.0  0.12242  0.22081  0.74027  1.0000
  H   H2        1.0  0.13315  0.17395  0.68653  1.0000
  O   O5        1.0  0.27456  0.12113  0.73520  1.0000
  C   C5        1.0  0.09041  0.45472  0.92297  1.0000
  O   O6        1.0  0.06991  0.33969  0.34000  1.0000
  O   O7        1.0  0.98243  0.26760  0.41941  1.0000
  C   C6        1.0  0.04810  0.35292  0.80175  1.0000
  H   H3        1.0  0.99617  0.39959  0.79873  1.0000
  O   O8        1.0  0.84262  0.50236  0.03408  1.0000
  C   C7        1.0  0.17769  0.21588  0.81443  1.0000
  O   O9        1.0  0.31768  0.17348  0.86941  1.0000
  O   O10       1.0  0.97755  0.44978  0.02273  1.0000
  C   C8        1.0  0.83025  0.29163  0.12219  1.0000
  C   C9        1.0  0.10409  0.36111  0.87053  1.0000
  C   C10       1.0  0.24968  0.13860  0.81829  1.0000
  H   H4        1.0  0.78480  0.29920  0.07028  1.0000
  C   C11       1.0  0.93973  0.29436  0.26798  1.0000
  C   C12       1.0  0.87758  0.22081  0.25973  1.0000
  C   C13       1.0  0.98575  0.33063  0.35020  1.0000
  H   H5        1.0  0.86685  0.17395  0.31347  1.0000
  O   O11       1.0  0.72544  0.12113  0.26480  1.0000
  C   C14       1.0  0.90959  0.45472  0.07703  1.0000
  C   C15       1.0  0.95190  0.35292  0.19825  1.0000
  H   H6        1.0  0.00383  0.39959  0.20127  1.0000
  C   C16       1.0  0.82231  0.21588  0.18557  1.0000
  O   O12       1.0  0.68232  0.17348  0.13059  1.0000
  C   C17       1.0  0.89591  0.36111  0.12947  1.0000
  C   C18       1.0  0.75032  0.13860  0.18171  1.0000
  C   C19       1.0  0.45190  0.85292  0.19825  1.0000
  H   H7        1.0  0.50383  0.89959  0.20127  1.0000
  C   C20       1.0  0.32231  0.71588  0.18557  1.0000
  O   O13       1.0  0.18232  0.67348  0.13059  1.0000
  C   C21       1.0  0.39591  0.86111  0.12947  1.0000
  C   C22       1.0  0.25032  0.63860  0.18171  1.0000
  C   C23       1.0  0.48575  0.83063  0.35020  1.0000
  O   O14       1.0  0.43009  0.83969  0.66000  1.0000
  O   O15       1.0  0.51757  0.76760  0.58059  1.0000
  O   O16       1.0  0.65738  0.00236  0.96592  1.0000
  C   C24       1.0  0.51425  0.83063  0.64980  1.0000
  C   C25       1.0  0.66975  0.79163  0.87781  1.0000
  H   H8        1.0  0.71520  0.79920  0.92972  1.0000
  O   O17       1.0  0.52245  0.94978  0.97727  1.0000
  C   C26       1.0  0.56027  0.79436  0.73202  1.0000
  C   C27       1.0  0.62242  0.72081  0.74027  1.0000
  H   H9        1.0  0.63315  0.67395  0.68653  1.0000
  O   O18       1.0  0.77456  0.62113  0.73520  1.0000
  C   C28       1.0  0.59041  0.95472  0.92297  1.0000
  O   O19       1.0  0.56991  0.83969  0.34000  1.0000
  O   O20       1.0  0.48243  0.76760  0.41941  1.0000
  C   C29       1.0  0.54810  0.85292  0.80175  1.0000
  H   H10       1.0  0.49617  0.89959  0.79873  1.0000
  O   O21       1.0  0.34262  0.00236  0.03408  1.0000
  C   C30       1.0  0.67769  0.71588  0.81443  1.0000
  O   O22       1.0  0.81768  0.67348  0.86941  1.0000
  O   O23       1.0  0.47755  0.94978  0.02273  1.0000
  C   C31       1.0  0.33025  0.79163  0.12219  1.0000
  C   C32       1.0  0.60409  0.86111  0.87053  1.0000
  C   C33       1.0  0.74968  0.63860  0.81829  1.0000
  H   H11       1.0  0.28480  0.79920  0.07028  1.0000
  C   C34       1.0  0.43973  0.79436  0.26798  1.0000
  C   C35       1.0  0.37758  0.72081  0.25973  1.0000
  H   H12       1.0  0.36685  0.67395  0.31347  1.0000
  O   O24       1.0  0.22544  0.62113  0.26480  1.0000
  C   C36       1.0  0.40959  0.95472  0.07703  1.0000
  C   C37       1.0  0.10448  0.62847  0.56389  1.0000
  O   O25       1.0  0.96736  0.55680  0.77725  1.0000
  C   C38       1.0  0.16708  0.76659  0.64414  1.0000
  O   O26       1.0  0.22984  0.90171  0.71996  1.0000
  C   C39       1.0  0.99107  0.65290  0.77311  1.0000
  O   O27       1.0  0.02124  0.66255  0.85597  1.0000
  O   O28       1.0  0.07262  0.46756  0.51398  1.0000
  O   O29       1.0  0.16575  0.55351  0.43755  1.0000
  C   C40       1.0  0.11121  0.75006  0.70936  1.0000
  H   H13       1.0  0.11329  0.79713  0.76482  1.0000
  C   C41       1.0  0.05341  0.61107  0.63256  1.0000
  H   H14       1.0  0.01276  0.54820  0.63095  1.0000
  C   C42       1.0  0.24465  0.82761  0.66452  1.0000
  C   C43       1.0  0.16033  0.70755  0.57042  1.0000
  H   H15       1.0  0.20003  0.72100  0.51938  1.0000
  O   O30       1.0  0.27711  0.88221  0.60114  1.0000
  C   C44       1.0  0.05512  0.67042  0.70553  1.0000
  C   C45       1.0  0.09673  0.56002  0.48617  1.0000
  H   H16       1.0  0.61329  0.29713  0.76482  1.0000
  C   C46       1.0  0.55341  0.11107  0.63256  1.0000
  H   H17       1.0  0.51276  0.04820  0.63095  1.0000
  C   C47       1.0  0.74465  0.32761  0.66452  1.0000
  C   C48       1.0  0.66033  0.20755  0.57042  1.0000
  H   H18       1.0  0.70003  0.22100  0.51938  1.0000
  O   O31       1.0  0.77711  0.38221  0.60114  1.0000
  C   C49       1.0  0.55512  0.17042  0.70553  1.0000
  C   C50       1.0  0.59673  0.06002  0.48617  1.0000
  C   C51       1.0  0.60448  0.12847  0.56389  1.0000
  O   O32       1.0  0.46736  0.05680  0.77725  1.0000
  C   C52       1.0  0.66708  0.26659  0.64414  1.0000
  O   O33       1.0  0.72984  0.40171  0.71996  1.0000
  C   C53       1.0  0.49107  0.15290  0.77311  1.0000
  O   O34       1.0  0.52124  0.16255  0.85597  1.0000
  O   O35       1.0  0.57262  0.96756  0.51398  1.0000
  O   O36       1.0  0.66575  0.05351  0.43755  1.0000
  C   C54       1.0  0.61121  0.25006  0.70936  1.0000
  O   O37       1.0  0.83425  0.55351  0.56245  1.0000
  C   C55       1.0  0.88879  0.75006  0.29064  1.0000
  H   H19       1.0  0.88671  0.79713  0.23518  1.0000
  C   C56       1.0  0.94659  0.61107  0.36744  1.0000
  H   H20       1.0  0.98724  0.54820  0.36905  1.0000
  C   C57       1.0  0.75535  0.82761  0.33548  1.0000
  C   C58       1.0  0.83967  0.70755  0.42958  1.0000
  H   H21       1.0  0.79997  0.72100  0.48062  1.0000
  O   O38       1.0  0.72289  0.88221  0.39886  1.0000
  C   C59       1.0  0.94488  0.67042  0.29447  1.0000
  C   C60       1.0  0.90327  0.56002  0.51383  1.0000
  C   C61       1.0  0.89552  0.62847  0.43611  1.0000
  O   O39       1.0  0.03264  0.55680  0.22275  1.0000
  C   C62       1.0  0.83292  0.76659  0.35586  1.0000
  O   O40       1.0  0.77016  0.90171  0.28004  1.0000
  C   C63       1.0  0.00893  0.65290  0.22689  1.0000
  O   O41       1.0  0.97876  0.66255  0.14403  1.0000
  O   O42       1.0  0.92738  0.46756  0.48602  1.0000
  C   C64       1.0  0.39552  0.12847  0.43611  1.0000
  O   O43       1.0  0.53264  0.05680  0.22275  1.0000
  C   C65       1.0  0.33292  0.26659  0.35586  1.0000
  O   O44       1.0  0.27016  0.40171  0.28004  1.0000
  C   C66       1.0  0.50893  0.15290  0.22689  1.0000
  O   O45       1.0  0.47876  0.16255  0.14403  1.0000
  O   O46       1.0  0.42738  0.96756  0.48602  1.0000
  O   O47       1.0  0.33425  0.05351  0.56245  1.0000
  C   C67       1.0  0.38879  0.25006  0.29064  1.0000
  H   H22       1.0  0.38671  0.29713  0.23518  1.0000
  C   C68       1.0  0.44659  0.11107  0.36744  1.0000
  H   H23       1.0  0.48724  0.04820  0.36905  1.0000
  C   C69       1.0  0.25535  0.32761  0.33548  1.0000
  C   C70       1.0  0.33967  0.20755  0.42958  1.0000
  H   H24       1.0  0.29997  0.22100  0.48062  1.0000
  O   O48       1.0  0.22289  0.38221  0.39886  1.0000
  C   C71       1.0  0.44488  0.17042  0.29447  1.0000
  C   C72       1.0  0.40327  0.06002  0.51383  1.0000
  Ca  Ca1       1.0  0.85493  0.48296  0.70177  1.0000
  Ca  Ca2       1.0  0.88307  0.31652  0.51773  1.0000
  Ca  Ca3       1.0  0.91831  0.55798  0.92225  1.0000
  Ca  Ca4       1.0  0.64507  0.98296  0.29823  1.0000
  Ca  Ca5       1.0  0.61693  0.81652  0.48227  1.0000
  Ca  Ca6       1.0  0.58169  0.05798  0.07775  1.0000
  Ca  Ca7       1.0  0.35493  0.98296  0.70177  1.0000
  Ca  Ca8       1.0  0.38307  0.81652  0.51773  1.0000
  Ca  Ca9       1.0  0.41831  0.05798  0.92225  1.0000
  O   O49       1.0  0.00000  0.67588  0.00000  1.0000
  O   O50       1.0  0.50000  0.17588  0.00000  1.0000
  Ca  Ca10      1.0  0.14507  0.48296  0.29823  1.0000
  Ca  Ca11      1.0  0.11693  0.31652  0.48227  1.0000
  Ca  Ca12      1.0  0.08169  0.55798  0.07775  1.0000
