data_image0
_chemical_formula_structural       N3CHCHN3CHCHN3CHCHN3CHCHN2CHCHN4CHCHN3CHCHN3CHCHNCHCHN2HN3CHCHN3CHCHCHN3CO2CO2CO2CO2CZn8N3CHCHN3CHCHN3CHCHN3CHCHN2CHCHN4CHCHN3CHCHN3CHCHNCHCHN2HN3CHCHN3CHCHCHN3CO2CO2CO2CO2CZn8
_chemical_formula_sum              "N72 C56 H48 O16 Zn16"
_cell_length_a       15.2472
_cell_length_b       9.9852
_cell_length_c       17.5606
_cell_angle_alpha    90
_cell_angle_beta     90
_cell_angle_gamma    90

_space_group_name_H-M_alt    "P 1"
_space_group_IT_number       1

loop_
  _space_group_symop_operation_xyz
  'x, y, z'

loop_
  _atom_site_type_symbol
  _atom_site_label
  _atom_site_symmetry_multiplicity
  _atom_site_fract_x
  _atom_site_fract_y
  _atom_site_fract_z
  _atom_site_occupancy
  N   N1        1.0  0.08278  0.10681  0.20118  1.0000
  N   N2        1.0  0.13453  0.92185  0.13910  1.0000
  N   N3        1.0  0.17061  0.10989  0.20474  1.0000
  C   C1        1.0  0.19977  0.00032  0.16727  1.0000
  H   H1        1.0  0.26854  0.98011  0.15978  1.0000
  C   C2        1.0  0.06221  0.99259  0.16169  1.0000
  H   H2        1.0  0.49568  0.96182  0.14946  1.0000
  N   N4        1.0  0.16769  0.89101  0.70167  1.0000
  N   N5        1.0  0.11742  0.07730  0.64016  1.0000
  N   N6        1.0  0.07981  0.89054  0.70642  1.0000
  C   C3        1.0  0.05150  0.00182  0.66965  1.0000
  H   H3        1.0  0.48290  0.02698  0.66371  1.0000
  C   C4        1.0  0.18915  0.00446  0.66184  1.0000
  H   H4        1.0  0.25587  0.03342  0.64893  1.0000
  N   N7        1.0  0.41746  0.60908  0.79890  1.0000
  N   N8        1.0  0.36583  0.42366  0.86083  1.0000
  N   N9        1.0  0.32971  0.61084  0.79434  1.0000
  C   C5        1.0  0.30062  0.50129  0.83186  1.0000
  H   H5        1.0  0.23184  0.48087  0.83911  1.0000
  C   C6        1.0  0.43809  0.49515  0.83872  1.0000
  H   H6        1.0  0.00462  0.46502  0.85145  1.0000
  N   N10       1.0  0.33270  0.38938  0.29784  1.0000
  N   N11       1.0  0.38393  0.57526  0.35940  1.0000
  N   N12       1.0  0.42046  0.38761  0.29334  1.0000
  C   C7        1.0  0.44928  0.49915  0.32926  1.0000
  H   H7        1.0  0.01785  0.52430  0.33286  1.0000
  C   C8        1.0  0.31186  0.50295  0.33784  1.0000
  H   H8        1.0  0.24529  0.53244  0.35090  1.0000
  N   N13       1.0  0.36558  0.07658  0.86073  1.0000
  N   N14       1.0  0.32959  0.88896  0.79468  1.0000
  C   C9        1.0  0.30039  0.99842  0.83222  1.0000
  H   H9        1.0  0.23159  0.01859  0.83972  1.0000
  C   C10       1.0  0.43793  0.00568  0.83837  1.0000
  H   H10       1.0  0.00444  0.03617  0.85086  1.0000
  N   N15       1.0  0.41739  0.89162  0.79874  1.0000
  N   N16       1.0  0.33243  0.10749  0.29864  1.0000
  N   N17       1.0  0.38275  0.92104  0.35989  1.0000
  N   N18       1.0  0.42026  0.10784  0.29347  1.0000
  C   C11       1.0  0.44861  0.99635  0.33009  1.0000
  H   H11       1.0  0.01721  0.97094  0.33576  1.0000
  C   C12       1.0  0.31102  0.99405  0.33848  1.0000
  H   H12       1.0  0.24432  0.96520  0.35156  1.0000
  N   N19       1.0  0.08260  0.38958  0.20117  1.0000
  N   N20       1.0  0.13437  0.57482  0.13934  1.0000
  N   N21       1.0  0.17034  0.38784  0.20608  1.0000
  C   C13       1.0  0.19953  0.49738  0.16858  1.0000
  H   H13       1.0  0.26832  0.51796  0.16154  1.0000
  C   C14       1.0  0.06205  0.50330  0.16119  1.0000
  H   H14       1.0  0.49556  0.53322  0.14815  1.0000
  N   N22       1.0  0.16745  0.60933  0.70169  1.0000
  N   N23       1.0  0.11620  0.42313  0.64044  1.0000
  N   N24       1.0  0.07970  0.61065  0.70668  1.0000
  C   C15       1.0  0.05088  0.49899  0.67085  1.0000
  H   H15       1.0  0.48231  0.47361  0.66745  1.0000
  C   C16       1.0  0.18826  0.49573  0.66169  1.0000
  H   H16       1.0  0.25482  0.46624  0.64860  1.0000
  N   N25       1.0  0.11696  0.24771  0.46660  1.0000
  C   C17       1.0  0.05200  0.24472  0.41338  1.0000
  H   H17       1.0  0.48318  0.24083  0.42700  1.0000
  C   C18       1.0  0.18947  0.24878  0.42064  1.0000
  H   H18       1.0  0.25594  0.25075  0.44214  1.0000
  N   N26       1.0  0.16925  0.24724  0.34452  1.0000
  N   N27       1.0  0.08145  0.24568  0.34056  1.0000
  H   H19       1.0  0.49267  0.74882  0.94180  1.0000
  N   N28       1.0  0.08018  0.74943  0.84468  1.0000
  N   N29       1.0  0.16807  0.74977  0.84115  1.0000
  N   N30       1.0  0.13148  0.74866  0.96687  1.0000
  C   C19       1.0  0.19698  0.74926  0.91427  1.0000
  H   H20       1.0  0.26576  0.74928  0.92910  1.0000
  C   C20       1.0  0.05931  0.74888  0.92064  1.0000
  H   H21       1.0  0.24374  0.74766  0.55800  1.0000
  N   N31       1.0  0.33045  0.74941  0.65563  1.0000
  N   N32       1.0  0.41828  0.75014  0.65952  1.0000
  N   N33       1.0  0.38272  0.74951  0.53349  1.0000
  C   C21       1.0  0.44769  0.75164  0.58669  1.0000
  H   H22       1.0  0.01651  0.75591  0.57307  1.0000
  C   C22       1.0  0.31021  0.74860  0.57949  1.0000
  H   H23       1.0  0.23392  0.24949  0.07099  1.0000
  C   C23       1.0  0.44038  0.24739  0.07943  1.0000
  H   H24       1.0  0.00700  0.24757  0.05824  1.0000
  N   N34       1.0  0.41953  0.24657  0.15537  1.0000
  N   N35       1.0  0.33160  0.24720  0.15898  1.0000
  N   N36       1.0  0.36820  0.24856  0.03322  1.0000
  C   C24       1.0  0.30271  0.24843  0.08584  1.0000
  O   O1        1.0  0.38094  0.41668  0.52705  1.0000
  O   O2        1.0  0.46997  0.24541  0.58282  1.0000
  C   C25       1.0  0.42537  0.33105  0.55495  1.0000
  O   O3        1.0  0.28093  0.74802  0.07579  1.0000
  O   O4        1.0  0.37725  0.74924  0.18349  1.0000
  C   C26       1.0  0.32905  0.74861  0.12969  1.0000
  O   O5        1.0  0.12311  0.25063  0.81606  1.0000
  O   O6        1.0  0.21907  0.24989  0.92399  1.0000
  C   C27       1.0  0.17113  0.25027  0.86998  1.0000
  O   O7        1.0  0.11892  0.58095  0.47287  1.0000
  O   O8        1.0  0.03006  0.75278  0.41746  1.0000
  C   C28       1.0  0.07458  0.66688  0.44515  1.0000
  Zn  Zn1       1.0  0.16159  0.74828  0.08086  1.0000
  Zn  Zn2       1.0  0.24935  0.74977  0.74839  1.0000
  Zn  Zn3       1.0  0.41085  0.74874  0.41816  1.0000
  Zn  Zn4       1.0  0.49903  0.75068  0.75237  1.0000
  Zn  Zn5       1.0  0.33842  0.24983  0.91914  1.0000
  Zn  Zn6       1.0  0.25059  0.24831  0.25216  1.0000
  Zn  Zn7       1.0  0.08915  0.24940  0.58190  1.0000
  Zn  Zn8       1.0  0.00108  0.24812  0.24750  1.0000
  N   N37       1.0  0.58277  0.10681  0.20118  1.0000
  N   N38       1.0  0.63453  0.92185  0.13910  1.0000
  N   N39       1.0  0.67061  0.10989  0.20474  1.0000
  C   C29       1.0  0.69977  0.00032  0.16727  1.0000
  H   H25       1.0  0.76854  0.98011  0.15978  1.0000
  C   C30       1.0  0.56221  0.99259  0.16169  1.0000
  H   H26       1.0  0.99568  0.96182  0.14946  1.0000
  N   N40       1.0  0.66768  0.89101  0.70167  1.0000
  N   N41       1.0  0.61742  0.07730  0.64016  1.0000
  N   N42       1.0  0.57981  0.89054  0.70642  1.0000
  C   C31       1.0  0.55150  0.00182  0.66965  1.0000
  H   H27       1.0  0.98289  0.02698  0.66371  1.0000
  C   C32       1.0  0.68915  0.00446  0.66184  1.0000
  H   H28       1.0  0.75587  0.03342  0.64893  1.0000
  N   N43       1.0  0.91746  0.60908  0.79890  1.0000
  N   N44       1.0  0.86583  0.42366  0.86083  1.0000
  N   N45       1.0  0.82971  0.61084  0.79434  1.0000
  C   C33       1.0  0.80061  0.50129  0.83186  1.0000
  H   H29       1.0  0.73185  0.48087  0.83911  1.0000
  C   C34       1.0  0.93809  0.49515  0.83872  1.0000
  H   H30       1.0  0.50462  0.46502  0.85145  1.0000
  N   N46       1.0  0.83270  0.38938  0.29784  1.0000
  N   N47       1.0  0.88392  0.57526  0.35940  1.0000
  N   N48       1.0  0.92046  0.38761  0.29334  1.0000
  C   C35       1.0  0.94928  0.49915  0.32926  1.0000
  H   H31       1.0  0.51785  0.52430  0.33286  1.0000
  C   C36       1.0  0.81186  0.50295  0.33784  1.0000
  H   H32       1.0  0.74529  0.53244  0.35090  1.0000
  N   N49       1.0  0.86559  0.07658  0.86073  1.0000
  N   N50       1.0  0.82959  0.88896  0.79468  1.0000
  C   C37       1.0  0.80039  0.99842  0.83222  1.0000
  H   H33       1.0  0.73159  0.01859  0.83972  1.0000
  C   C38       1.0  0.93793  0.00568  0.83837  1.0000
  H   H34       1.0  0.50444  0.03617  0.85086  1.0000
  N   N51       1.0  0.91739  0.89162  0.79874  1.0000
  N   N52       1.0  0.83243  0.10749  0.29864  1.0000
  N   N53       1.0  0.88275  0.92104  0.35989  1.0000
  N   N54       1.0  0.92026  0.10784  0.29347  1.0000
  C   C39       1.0  0.94861  0.99635  0.33009  1.0000
  H   H35       1.0  0.51721  0.97094  0.33576  1.0000
  C   C40       1.0  0.81102  0.99405  0.33848  1.0000
  H   H36       1.0  0.74431  0.96520  0.35156  1.0000
  N   N55       1.0  0.58259  0.38958  0.20117  1.0000
  N   N56       1.0  0.63436  0.57482  0.13934  1.0000
  N   N57       1.0  0.67034  0.38784  0.20608  1.0000
  C   C41       1.0  0.69954  0.49738  0.16858  1.0000
  H   H37       1.0  0.76833  0.51796  0.16154  1.0000
  C   C42       1.0  0.56205  0.50330  0.16119  1.0000
  H   H38       1.0  0.99556  0.53322  0.14815  1.0000
  N   N58       1.0  0.66745  0.60933  0.70169  1.0000
  N   N59       1.0  0.61620  0.42313  0.64044  1.0000
  N   N60       1.0  0.57970  0.61065  0.70668  1.0000
  C   C43       1.0  0.55088  0.49899  0.67085  1.0000
  H   H39       1.0  0.98231  0.47361  0.66745  1.0000
  C   C44       1.0  0.68827  0.49573  0.66169  1.0000
  H   H40       1.0  0.75482  0.46624  0.64860  1.0000
  N   N61       1.0  0.61696  0.24771  0.46660  1.0000
  C   C45       1.0  0.55200  0.24472  0.41338  1.0000
  H   H41       1.0  0.98318  0.24083  0.42700  1.0000
  C   C46       1.0  0.68947  0.24878  0.42064  1.0000
  H   H42       1.0  0.75593  0.25075  0.44214  1.0000
  N   N62       1.0  0.66924  0.24724  0.34452  1.0000
  N   N63       1.0  0.58144  0.24568  0.34056  1.0000
  H   H43       1.0  0.99267  0.74882  0.94180  1.0000
  N   N64       1.0  0.58018  0.74943  0.84468  1.0000
  N   N65       1.0  0.66807  0.74977  0.84115  1.0000
  N   N66       1.0  0.63148  0.74866  0.96687  1.0000
  C   C47       1.0  0.69698  0.74926  0.91427  1.0000
  H   H44       1.0  0.76577  0.74928  0.92910  1.0000
  C   C48       1.0  0.55931  0.74888  0.92064  1.0000
  H   H45       1.0  0.74374  0.74766  0.55800  1.0000
  N   N67       1.0  0.83045  0.74941  0.65563  1.0000
  N   N68       1.0  0.91828  0.75014  0.65952  1.0000
  N   N69       1.0  0.88272  0.74951  0.53349  1.0000
  C   C49       1.0  0.94769  0.75164  0.58669  1.0000
  H   H46       1.0  0.51651  0.75591  0.57307  1.0000
  C   C50       1.0  0.81021  0.74860  0.57949  1.0000
  H   H47       1.0  0.73393  0.24949  0.07099  1.0000
  C   C51       1.0  0.94038  0.24739  0.07943  1.0000
  H   H48       1.0  0.50700  0.24757  0.05824  1.0000
  N   N70       1.0  0.91953  0.24657  0.15537  1.0000
  N   N71       1.0  0.83160  0.24720  0.15898  1.0000
  N   N72       1.0  0.86820  0.24856  0.03322  1.0000
  C   C52       1.0  0.80271  0.24843  0.08584  1.0000
  O   O9        1.0  0.88094  0.41668  0.52705  1.0000
  O   O10       1.0  0.96997  0.24541  0.58282  1.0000
  C   C53       1.0  0.92537  0.33105  0.55495  1.0000
  O   O11       1.0  0.78093  0.74802  0.07579  1.0000
  O   O12       1.0  0.87725  0.74924  0.18349  1.0000
  C   C54       1.0  0.82905  0.74861  0.12969  1.0000
  O   O13       1.0  0.62311  0.25063  0.81606  1.0000
  O   O14       1.0  0.71907  0.24989  0.92399  1.0000
  C   C55       1.0  0.67113  0.25027  0.86998  1.0000
  O   O15       1.0  0.61892  0.58095  0.47287  1.0000
  O   O16       1.0  0.53006  0.75278  0.41746  1.0000
  C   C56       1.0  0.57459  0.66688  0.44515  1.0000
  Zn  Zn9       1.0  0.66159  0.74828  0.08086  1.0000
  Zn  Zn10      1.0  0.74935  0.74977  0.74839  1.0000
  Zn  Zn11      1.0  0.91085  0.74874  0.41816  1.0000
  Zn  Zn12      1.0  0.99903  0.75068  0.75237  1.0000
  Zn  Zn13      1.0  0.83842  0.24983  0.91914  1.0000
  Zn  Zn14      1.0  0.75058  0.24831  0.25216  1.0000
  Zn  Zn15      1.0  0.58915  0.24940  0.58190  1.0000
  Zn  Zn16      1.0  0.50108  0.24812  0.24750  1.0000
