data_image0
_chemical_formula_structural       O2CH2CO2CHO4CHOCHOCOHOCHO2HCO3CHOCHO4CHOCOHCHO3HCO3CHOCHOCHO2HOCO2CHOCO2HO2CHO2CHOCHOHOCOMg12
_chemical_formula_sum              "O48 C24 H24 Mg12"
_cell_length_a       11.35
_cell_length_b       9.864
_cell_length_c       14.566
_cell_angle_alpha    90
_cell_angle_beta     91.4
_cell_angle_gamma    90

_space_group_name_H-M_alt    "P 1"
_space_group_IT_number       1

loop_
  _space_group_symop_operation_xyz
  'x, y, z'

loop_
  _atom_site_type_symbol
  _atom_site_label
  _atom_site_symmetry_multiplicity
  _atom_site_fract_x
  _atom_site_fract_y
  _atom_site_fract_z
  _atom_site_occupancy
  O   O1        1.0  0.81404  0.55590  0.36611  1.0000
  O   O2        1.0  0.80776  0.69922  0.24687  1.0000
  C   C1        1.0  0.82948  0.66877  0.33065  1.0000
  H   H1        1.0  0.86015  0.73854  0.36932  1.0000
  H   H2        1.0  0.47665  0.46063  0.26285  1.0000
  C   C2        1.0  0.51974  0.48254  0.20976  1.0000
  O   O3        1.0  0.63112  0.49277  0.21980  1.0000
  O   O4        1.0  0.46269  0.49846  0.13750  1.0000
  C   C3        1.0  0.57822  0.78710  0.05091  1.0000
  H   H3        1.0  0.56389  0.88102  0.04150  1.0000
  O   O5        1.0  0.65707  0.75507  0.11166  1.0000
  O   O6        1.0  0.51931  0.70724  0.00360  1.0000
  O   O7        1.0  0.64969  0.89480  0.53333  1.0000
  O   O8        1.0  0.81688  0.97427  0.47501  1.0000
  C   C4        1.0  0.75804  0.90009  0.52954  1.0000
  H   H4        1.0  0.80185  0.84394  0.57091  1.0000
  O   O9        1.0  0.48326  0.89248  0.37976  1.0000
  C   C5        1.0  0.54929  0.86707  0.31588  1.0000
  H   H5        1.0  0.52145  0.80357  0.27137  1.0000
  O   O10       1.0  0.65084  0.91743  0.30376  1.0000
  C   C6        1.0  0.56902  0.27519  0.44433  1.0000
  O   O11       1.0  0.61103  0.37251  0.40277  1.0000
  H   H6        1.0  0.50714  0.29400  0.48519  1.0000
  O   O12       1.0  0.60149  0.15110  0.43722  1.0000
  C   C7        1.0  0.67052  0.16877  0.16935  1.0000
  H   H7        1.0  0.63984  0.23854  0.13068  1.0000
  O   O13       1.0  0.68596  0.05590  0.13389  1.0000
  O   O14       1.0  0.69224  0.19922  0.25313  1.0000
  H   H8        1.0  0.02335  0.96063  0.23715  1.0000
  C   C8        1.0  0.98026  0.98254  0.29024  1.0000
  O   O15       1.0  0.86888  0.99277  0.28020  1.0000
  O   O16       1.0  0.03731  0.99846  0.36250  1.0000
  O   O17       1.0  0.98069  0.20724  0.49640  1.0000
  C   C9        1.0  0.92178  0.28710  0.44909  1.0000
  H   H9        1.0  0.93611  0.38102  0.45850  1.0000
  O   O18       1.0  0.84293  0.25507  0.38834  1.0000
  C   C10       1.0  0.74196  0.40009  0.97046  1.0000
  H   H10       1.0  0.69814  0.34394  0.92909  1.0000
  O   O19       1.0  0.85031  0.39480  0.96667  1.0000
  O   O20       1.0  0.68312  0.47427  0.02499  1.0000
  O   O21       1.0  0.84916  0.41743  0.19624  1.0000
  O   O22       1.0  0.01674  0.39248  0.12024  1.0000
  C   C11       1.0  0.95071  0.36707  0.18412  1.0000
  H   H11       1.0  0.97855  0.30357  0.22863  1.0000
  O   O23       1.0  0.89851  0.65110  0.06278  1.0000
  C   C12       1.0  0.93098  0.77519  0.05567  1.0000
  O   O24       1.0  0.88897  0.87251  0.09723  1.0000
  H   H12       1.0  0.99286  0.79400  0.01481  1.0000
  C   C13       1.0  0.17052  0.33123  0.66935  1.0000
  H   H13       1.0  0.13985  0.26146  0.63068  1.0000
  O   O25       1.0  0.18596  0.44410  0.63389  1.0000
  O   O26       1.0  0.19224  0.30078  0.75313  1.0000
  O   O27       1.0  0.53731  0.50154  0.86250  1.0000
  H   H14       1.0  0.52335  0.53937  0.73715  1.0000
  C   C14       1.0  0.48026  0.51746  0.79024  1.0000
  O   O28       1.0  0.36888  0.50723  0.78020  1.0000
  O   O29       1.0  0.34293  0.24493  0.88834  1.0000
  O   O30       1.0  0.48069  0.29276  0.99640  1.0000
  C   C15       1.0  0.42178  0.21290  0.94909  1.0000
  H   H15       1.0  0.43611  0.11898  0.95850  1.0000
  O   O31       1.0  0.18312  0.02573  0.52499  1.0000
  C   C16       1.0  0.24196  0.09991  0.47046  1.0000
  H   H16       1.0  0.19815  0.15606  0.42909  1.0000
  O   O32       1.0  0.35031  0.10520  0.46667  1.0000
  C   C17       1.0  0.45071  0.13293  0.68412  1.0000
  H   H17       1.0  0.47855  0.19643  0.72863  1.0000
  O   O33       1.0  0.34916  0.08257  0.69624  1.0000
  O   O34       1.0  0.51674  0.10752  0.62024  1.0000
  H   H18       1.0  0.49286  0.70600  0.51481  1.0000
  O   O35       1.0  0.39851  0.84890  0.56278  1.0000
  C   C18       1.0  0.43098  0.72481  0.55567  1.0000
  O   O36       1.0  0.38897  0.62749  0.59723  1.0000
  O   O37       1.0  0.30776  0.80078  0.74687  1.0000
  C   C19       1.0  0.32948  0.83123  0.83065  1.0000
  H   H19       1.0  0.36015  0.76146  0.86932  1.0000
  O   O38       1.0  0.31404  0.94410  0.86611  1.0000
  C   C20       1.0  0.01974  0.01746  0.70976  1.0000
  O   O39       1.0  0.13112  0.00723  0.71980  1.0000
  O   O40       1.0  0.96269  0.00154  0.63750  1.0000
  H   H20       1.0  0.97665  0.03937  0.76285  1.0000
  O   O41       1.0  0.15707  0.74493  0.61166  1.0000
  O   O42       1.0  0.01931  0.79276  0.50360  1.0000
  C   C21       1.0  0.07822  0.71290  0.55091  1.0000
  H   H21       1.0  0.06389  0.61898  0.54150  1.0000
  O   O43       1.0  0.14969  0.60520  0.03333  1.0000
  O   O44       1.0  0.31688  0.52573  0.97501  1.0000
  C   C22       1.0  0.25804  0.59991  0.02954  1.0000
  H   H22       1.0  0.30185  0.65606  0.07091  1.0000
  O   O45       1.0  0.98326  0.60752  0.87976  1.0000
  C   C23       1.0  0.04929  0.63293  0.81588  1.0000
  H   H23       1.0  0.02145  0.69643  0.77137  1.0000
  O   O46       1.0  0.15084  0.58257  0.80376  1.0000
  H   H24       1.0  0.00714  0.20600  0.98519  1.0000
  O   O47       1.0  0.10149  0.34890  0.93722  1.0000
  C   C24       1.0  0.06902  0.22481  0.94433  1.0000
  O   O48       1.0  0.11103  0.12749  0.90277  1.0000
  Mg  Mg1       1.0  0.74363  0.07805  0.36519  1.0000
  Mg  Mg2       1.0  0.73952  0.38744  0.30942  1.0000
  Mg  Mg3       1.0  0.50000  0.50000  0.00000  1.0000
  Mg  Mg4       1.0  0.00000  0.00000  0.50000  1.0000
  Mg  Mg5       1.0  0.50000  0.00000  0.50000  1.0000
  Mg  Mg6       1.0  0.00000  0.50000  0.00000  1.0000
  Mg  Mg7       1.0  0.24363  0.42195  0.86519  1.0000
  Mg  Mg8       1.0  0.23952  0.11256  0.80942  1.0000
  Mg  Mg9       1.0  0.25637  0.92195  0.63481  1.0000
  Mg  Mg10      1.0  0.26048  0.61256  0.69058  1.0000
  Mg  Mg11      1.0  0.75637  0.57805  0.13481  1.0000
  Mg  Mg12      1.0  0.76048  0.88744  0.19058  1.0000
