data_image0
_chemical_formula_structural       PO6PC9H4C3H2CH3PO6PC10HC2H2CH4O5PC13H8PO6PC13H8POPO6PC9H4C3H2CH3PO6PC10HC2H2CH4PO6PC13H8PO6PC13H8Ga8PO6PC9H4C3H2CH3PO6PC10HC2H2CH4O5PC13H8PO6PC13H8POPO6PC9H4C3H2CH3PO6PC10HC2H2CH4PO6PC13H8PO6PC13H8Ga8
_chemical_formula_sum              "P32 O96 C208 H128 Ga16"
_cell_length_a       23.829
_cell_length_b       10.202
_cell_length_c       27.997
_cell_angle_alpha    90
_cell_angle_beta     77.264
_cell_angle_gamma    90

_space_group_name_H-M_alt    "P 1"
_space_group_IT_number       1

loop_
  _space_group_symop_operation_xyz
  'x, y, z'

loop_
  _atom_site_type_symbol
  _atom_site_label
  _atom_site_symmetry_multiplicity
  _atom_site_fract_x
  _atom_site_fract_y
  _atom_site_fract_z
  _atom_site_occupancy
  P   P1        1.0  0.37674  0.23991  0.56269  1.0000
  O   O1        1.0  0.33768  0.11851  0.54957  1.0000
  O   O2        1.0  0.34575  0.37880  0.55508  1.0000
  O   O3        1.0  0.43042  0.24061  0.51960  1.0000
  O   O4        1.0  0.29562  0.41724  0.97131  1.0000
  O   O5        1.0  0.24325  0.19632  0.95223  1.0000
  O   O6        1.0  0.34033  0.16786  0.97861  1.0000
  P   P2        1.0  0.30552  0.26543  0.94854  1.0000
  C   C1        1.0  0.47100  0.21646  0.75006  1.0000
  C   C2        1.0  0.40140  0.22694  0.61993  1.0000
  C   C3        1.0  0.37909  0.30908  0.65950  1.0000
  C   C4        1.0  0.40168  0.30506  0.70155  1.0000
  C   C5        1.0  0.44782  0.22065  0.70429  1.0000
  C   C6        1.0  0.47021  0.14113  0.66360  1.0000
  C   C7        1.0  0.44680  0.14264  0.62220  1.0000
  C   C8        1.0  0.42708  0.23119  0.79636  1.0000
  C   C9        1.0  0.43010  0.33882  0.82622  1.0000
  H   H1        1.0  0.34468  0.37690  0.65765  1.0000
  H   H2        1.0  0.38370  0.36992  0.73159  1.0000
  H   H3        1.0  0.50703  0.08124  0.66272  1.0000
  H   H4        1.0  0.46541  0.08108  0.59122  1.0000
  C   C10       1.0  0.38078  0.14364  0.80941  1.0000
  C   C11       1.0  0.34102  0.15895  0.85408  1.0000
  C   C12       1.0  0.39078  0.35473  0.87058  1.0000
  H   H5        1.0  0.37664  0.06166  0.78593  1.0000
  H   H6        1.0  0.46418  0.40770  0.81468  1.0000
  C   C13       1.0  0.34660  0.26372  0.88511  1.0000
  H   H7        1.0  0.30744  0.08661  0.86527  1.0000
  H   H8        1.0  0.39586  0.43605  0.89394  1.0000
  H   H9        1.0  0.65532  0.37690  0.84235  1.0000
  P   P3        1.0  0.62326  0.23991  0.93731  1.0000
  O   O7        1.0  0.66232  0.11851  0.95043  1.0000
  O   O8        1.0  0.65425  0.37880  0.94492  1.0000
  O   O9        1.0  0.56958  0.24061  0.98040  1.0000
  O   O10       1.0  0.70438  0.41724  0.52869  1.0000
  O   O11       1.0  0.75675  0.19632  0.54777  1.0000
  O   O12       1.0  0.65967  0.16786  0.52139  1.0000
  P   P4        1.0  0.69448  0.26543  0.55146  1.0000
  C   C14       1.0  0.52900  0.21646  0.74994  1.0000
  C   C15       1.0  0.59860  0.22694  0.88007  1.0000
  C   C16       1.0  0.62091  0.30908  0.84050  1.0000
  C   C17       1.0  0.59832  0.30506  0.79845  1.0000
  C   C18       1.0  0.55218  0.22065  0.79571  1.0000
  C   C19       1.0  0.52979  0.14113  0.83640  1.0000
  C   C20       1.0  0.55320  0.14264  0.87780  1.0000
  C   C21       1.0  0.57292  0.23119  0.70364  1.0000
  C   C22       1.0  0.56990  0.33882  0.67378  1.0000
  C   C23       1.0  0.60922  0.35473  0.62942  1.0000
  H   H10       1.0  0.61630  0.36992  0.76841  1.0000
  C   C24       1.0  0.65898  0.15895  0.64592  1.0000
  C   C25       1.0  0.61922  0.14364  0.69059  1.0000
  H   H11       1.0  0.53582  0.40770  0.68532  1.0000
  H   H12       1.0  0.49297  0.08124  0.83728  1.0000
  C   C26       1.0  0.65340  0.26372  0.61489  1.0000
  H   H13       1.0  0.62336  0.06166  0.71407  1.0000
  H   H14       1.0  0.69256  0.08661  0.63473  1.0000
  H   H15       1.0  0.60414  0.43605  0.60606  1.0000
  H   H16       1.0  0.53459  0.08108  0.90878  1.0000
  O   O13       1.0  0.65425  0.12120  0.44492  1.0000
  O   O14       1.0  0.56958  0.25939  0.48040  1.0000
  O   O15       1.0  0.70438  0.08275  0.02869  1.0000
  O   O16       1.0  0.75675  0.30368  0.04777  1.0000
  O   O17       1.0  0.65967  0.33215  0.02139  1.0000
  P   P5        1.0  0.69448  0.23456  0.05146  1.0000
  C   C27       1.0  0.52900  0.28354  0.24994  1.0000
  C   C28       1.0  0.59860  0.27306  0.38007  1.0000
  C   C29       1.0  0.62091  0.19092  0.34050  1.0000
  C   C30       1.0  0.59832  0.19493  0.29845  1.0000
  C   C31       1.0  0.55218  0.27935  0.29571  1.0000
  C   C32       1.0  0.52979  0.35887  0.33640  1.0000
  C   C33       1.0  0.55320  0.35736  0.37780  1.0000
  C   C34       1.0  0.57292  0.26881  0.20364  1.0000
  C   C35       1.0  0.56990  0.16118  0.17378  1.0000
  C   C36       1.0  0.60922  0.14527  0.12942  1.0000
  C   C37       1.0  0.65340  0.23628  0.11489  1.0000
  C   C38       1.0  0.65898  0.34105  0.14592  1.0000
  C   C39       1.0  0.61922  0.35636  0.19059  1.0000
  H   H17       1.0  0.65532  0.12310  0.34235  1.0000
  H   H18       1.0  0.61630  0.13008  0.26841  1.0000
  H   H19       1.0  0.49297  0.41876  0.33728  1.0000
  H   H20       1.0  0.53459  0.41892  0.40878  1.0000
  H   H21       1.0  0.53582  0.09230  0.18532  1.0000
  H   H22       1.0  0.60414  0.06395  0.10606  1.0000
  H   H23       1.0  0.69256  0.41340  0.13473  1.0000
  H   H24       1.0  0.62336  0.43834  0.21407  1.0000
  P   P6        1.0  0.37674  0.26009  0.06269  1.0000
  O   O18       1.0  0.33768  0.38149  0.04957  1.0000
  O   O19       1.0  0.34575  0.12120  0.05508  1.0000
  O   O20       1.0  0.43042  0.25939  0.01960  1.0000
  O   O21       1.0  0.29562  0.08275  0.47131  1.0000
  O   O22       1.0  0.24325  0.30368  0.45223  1.0000
  O   O23       1.0  0.34033  0.33215  0.47861  1.0000
  P   P7        1.0  0.30552  0.23456  0.44854  1.0000
  C   C40       1.0  0.47100  0.28354  0.25006  1.0000
  C   C41       1.0  0.40140  0.27306  0.11993  1.0000
  C   C42       1.0  0.37909  0.19092  0.15950  1.0000
  C   C43       1.0  0.40168  0.19493  0.20155  1.0000
  C   C44       1.0  0.44782  0.27935  0.20429  1.0000
  C   C45       1.0  0.47021  0.35887  0.16360  1.0000
  C   C46       1.0  0.44680  0.35736  0.12220  1.0000
  C   C47       1.0  0.42708  0.26881  0.29636  1.0000
  C   C48       1.0  0.43010  0.16118  0.32622  1.0000
  C   C49       1.0  0.39078  0.14527  0.37058  1.0000
  C   C50       1.0  0.34660  0.23628  0.38511  1.0000
  C   C51       1.0  0.34102  0.34105  0.35408  1.0000
  C   C52       1.0  0.38078  0.35636  0.30941  1.0000
  H   H25       1.0  0.34468  0.12310  0.15765  1.0000
  H   H26       1.0  0.38370  0.13008  0.23159  1.0000
  H   H27       1.0  0.50703  0.41876  0.16272  1.0000
  H   H28       1.0  0.46541  0.41892  0.09122  1.0000
  H   H29       1.0  0.46418  0.09230  0.31468  1.0000
  H   H30       1.0  0.39586  0.06395  0.39394  1.0000
  H   H31       1.0  0.30744  0.41340  0.36527  1.0000
  H   H32       1.0  0.37664  0.43834  0.28593  1.0000
  P   P8        1.0  0.62326  0.26009  0.43731  1.0000
  O   O24       1.0  0.66232  0.38149  0.45043  1.0000
  P   P9        1.0  0.87674  0.48991  0.56269  1.0000
  O   O25       1.0  0.83768  0.36851  0.54957  1.0000
  O   O26       1.0  0.84575  0.12880  0.55508  1.0000
  O   O27       1.0  0.93042  0.49061  0.51960  1.0000
  O   O28       1.0  0.79562  0.16725  0.97131  1.0000
  O   O29       1.0  0.74325  0.44632  0.95223  1.0000
  O   O30       1.0  0.84033  0.41786  0.97861  1.0000
  P   P10       1.0  0.80552  0.01544  0.94854  1.0000
  C   C53       1.0  0.97100  0.46646  0.75006  1.0000
  C   C54       1.0  0.90140  0.47694  0.61993  1.0000
  C   C55       1.0  0.87909  0.05908  0.65950  1.0000
  C   C56       1.0  0.90168  0.05507  0.70155  1.0000
  C   C57       1.0  0.94782  0.47065  0.70429  1.0000
  C   C58       1.0  0.97021  0.39113  0.66360  1.0000
  C   C59       1.0  0.94680  0.39264  0.62220  1.0000
  C   C60       1.0  0.92708  0.48119  0.79636  1.0000
  C   C61       1.0  0.93010  0.08883  0.82622  1.0000
  H   H33       1.0  0.84468  0.12690  0.65765  1.0000
  H   H34       1.0  0.88370  0.11992  0.73159  1.0000
  H   H35       1.0  0.00703  0.33124  0.66272  1.0000
  H   H36       1.0  0.96541  0.33108  0.59122  1.0000
  C   C62       1.0  0.88078  0.39364  0.80941  1.0000
  C   C63       1.0  0.84102  0.40895  0.85408  1.0000
  C   C64       1.0  0.89078  0.10473  0.87058  1.0000
  H   H37       1.0  0.87664  0.31166  0.78593  1.0000
  H   H38       1.0  0.96418  0.15770  0.81468  1.0000
  C   C65       1.0  0.84660  0.01372  0.88511  1.0000
  H   H39       1.0  0.80744  0.33660  0.86527  1.0000
  H   H40       1.0  0.89586  0.18604  0.89394  1.0000
  H   H41       1.0  0.15532  0.12690  0.84235  1.0000
  P   P11       1.0  0.12326  0.48991  0.93731  1.0000
  O   O31       1.0  0.16232  0.36851  0.95043  1.0000
  O   O32       1.0  0.15425  0.12880  0.94492  1.0000
  O   O33       1.0  0.06958  0.49061  0.98040  1.0000
  O   O34       1.0  0.20438  0.16725  0.52869  1.0000
  O   O35       1.0  0.25675  0.44632  0.54777  1.0000
  O   O36       1.0  0.15967  0.41786  0.52139  1.0000
  P   P12       1.0  0.19448  0.01544  0.55146  1.0000
  C   C66       1.0  0.02900  0.46646  0.74994  1.0000
  C   C67       1.0  0.09860  0.47694  0.88007  1.0000
  C   C68       1.0  0.12091  0.05908  0.84050  1.0000
  C   C69       1.0  0.09832  0.05507  0.79845  1.0000
  C   C70       1.0  0.05218  0.47065  0.79571  1.0000
  C   C71       1.0  0.02979  0.39113  0.83640  1.0000
  C   C72       1.0  0.05320  0.39264  0.87780  1.0000
  C   C73       1.0  0.07292  0.48119  0.70364  1.0000
  C   C74       1.0  0.06990  0.08883  0.67378  1.0000
  C   C75       1.0  0.10922  0.10473  0.62942  1.0000
  H   H42       1.0  0.11630  0.11992  0.76841  1.0000
  C   C76       1.0  0.15898  0.40895  0.64592  1.0000
  C   C77       1.0  0.11922  0.39364  0.69059  1.0000
  H   H43       1.0  0.03582  0.15770  0.68532  1.0000
  H   H44       1.0  0.99297  0.33124  0.83728  1.0000
  C   C78       1.0  0.15340  0.01372  0.61489  1.0000
  H   H45       1.0  0.12336  0.31166  0.71407  1.0000
  H   H46       1.0  0.10414  0.18604  0.60606  1.0000
  H   H47       1.0  0.19256  0.33660  0.63473  1.0000
  H   H48       1.0  0.03459  0.33108  0.90878  1.0000
  P   P13       1.0  0.12326  0.01009  0.43731  1.0000
  O   O37       1.0  0.16232  0.13149  0.45043  1.0000
  O   O38       1.0  0.15425  0.37120  0.44492  1.0000
  O   O39       1.0  0.06958  0.00940  0.48040  1.0000
  O   O40       1.0  0.20438  0.33276  0.02869  1.0000
  O   O41       1.0  0.25675  0.05368  0.04777  1.0000
  O   O42       1.0  0.15967  0.08214  0.02139  1.0000
  P   P14       1.0  0.19448  0.48457  0.05146  1.0000
  C   C79       1.0  0.02900  0.03354  0.24994  1.0000
  C   C80       1.0  0.09860  0.02306  0.38007  1.0000
  C   C81       1.0  0.12091  0.44092  0.34050  1.0000
  C   C82       1.0  0.09832  0.44494  0.29845  1.0000
  C   C83       1.0  0.05218  0.02935  0.29571  1.0000
  C   C84       1.0  0.02979  0.10887  0.33640  1.0000
  C   C85       1.0  0.05320  0.10736  0.37780  1.0000
  C   C86       1.0  0.07292  0.01880  0.20364  1.0000
  C   C87       1.0  0.06990  0.41118  0.17378  1.0000
  C   C88       1.0  0.10922  0.39527  0.12942  1.0000
  C   C89       1.0  0.15340  0.48628  0.11489  1.0000
  C   C90       1.0  0.15898  0.09105  0.14592  1.0000
  C   C91       1.0  0.11922  0.10637  0.19059  1.0000
  H   H49       1.0  0.15532  0.37310  0.34235  1.0000
  H   H50       1.0  0.11630  0.38008  0.26841  1.0000
  H   H51       1.0  0.99297  0.16876  0.33728  1.0000
  H   H52       1.0  0.03459  0.16892  0.40878  1.0000
  H   H53       1.0  0.03582  0.34230  0.18532  1.0000
  H   H54       1.0  0.10414  0.31395  0.10606  1.0000
  H   H55       1.0  0.19256  0.16340  0.13473  1.0000
  H   H56       1.0  0.12336  0.18834  0.21407  1.0000
  P   P15       1.0  0.87674  0.01009  0.06269  1.0000
  O   O43       1.0  0.83768  0.13149  0.04957  1.0000
  O   O44       1.0  0.84575  0.37120  0.05508  1.0000
  O   O45       1.0  0.93042  0.00940  0.01960  1.0000
  O   O46       1.0  0.79562  0.33276  0.47131  1.0000
  O   O47       1.0  0.74325  0.05368  0.45223  1.0000
  O   O48       1.0  0.84033  0.08214  0.47861  1.0000
  P   P16       1.0  0.80552  0.48457  0.44854  1.0000
  C   C92       1.0  0.97100  0.03354  0.25006  1.0000
  C   C93       1.0  0.90140  0.02306  0.11993  1.0000
  C   C94       1.0  0.87909  0.44092  0.15950  1.0000
  C   C95       1.0  0.90168  0.44494  0.20155  1.0000
  C   C96       1.0  0.94782  0.02935  0.20429  1.0000
  C   C97       1.0  0.97021  0.10887  0.16360  1.0000
  C   C98       1.0  0.94680  0.10736  0.12220  1.0000
  C   C99       1.0  0.92708  0.01880  0.29636  1.0000
  C   C100      1.0  0.93010  0.41118  0.32622  1.0000
  C   C101      1.0  0.89078  0.39527  0.37058  1.0000
  C   C102      1.0  0.84660  0.48628  0.38511  1.0000
  C   C103      1.0  0.84102  0.09105  0.35408  1.0000
  C   C104      1.0  0.88078  0.10637  0.30941  1.0000
  H   H57       1.0  0.84468  0.37310  0.15765  1.0000
  H   H58       1.0  0.88370  0.38008  0.23159  1.0000
  H   H59       1.0  0.00703  0.16876  0.16272  1.0000
  H   H60       1.0  0.96541  0.16892  0.09122  1.0000
  H   H61       1.0  0.96418  0.34230  0.31468  1.0000
  H   H62       1.0  0.89586  0.31395  0.39394  1.0000
  H   H63       1.0  0.80744  0.16340  0.36527  1.0000
  H   H64       1.0  0.87664  0.18834  0.28593  1.0000
  Ga  Ga1       1.0  0.32760  0.48583  0.51421  1.0000
  Ga  Ga2       1.0  0.82760  0.26416  0.01421  1.0000
  Ga  Ga3       1.0  0.32760  0.01416  0.01421  1.0000
  Ga  Ga4       1.0  0.17240  0.26416  0.48579  1.0000
  Ga  Ga5       1.0  0.67240  0.01416  0.48579  1.0000
  Ga  Ga6       1.0  0.17240  0.23583  0.98579  1.0000
  Ga  Ga7       1.0  0.67240  0.48583  0.98579  1.0000
  Ga  Ga8       1.0  0.82760  0.23583  0.51421  1.0000
  P   P17       1.0  0.37674  0.73991  0.56269  1.0000
  O   O49       1.0  0.33768  0.61851  0.54957  1.0000
  O   O50       1.0  0.34575  0.87880  0.55508  1.0000
  O   O51       1.0  0.43042  0.74060  0.51960  1.0000
  O   O52       1.0  0.29562  0.91724  0.97131  1.0000
  O   O53       1.0  0.24325  0.69632  0.95223  1.0000
  O   O54       1.0  0.34033  0.66786  0.97861  1.0000
  P   P18       1.0  0.30552  0.76543  0.94854  1.0000
  C   C105      1.0  0.47100  0.71645  0.75006  1.0000
  C   C106      1.0  0.40140  0.72694  0.61993  1.0000
  C   C107      1.0  0.37909  0.80908  0.65950  1.0000
  C   C108      1.0  0.40168  0.80506  0.70155  1.0000
  C   C109      1.0  0.44782  0.72065  0.70429  1.0000
  C   C110      1.0  0.47021  0.64113  0.66360  1.0000
  C   C111      1.0  0.44680  0.64264  0.62220  1.0000
  C   C112      1.0  0.42708  0.73119  0.79636  1.0000
  C   C113      1.0  0.43010  0.83883  0.82622  1.0000
  H   H65       1.0  0.34468  0.87690  0.65765  1.0000
  H   H66       1.0  0.38370  0.86992  0.73159  1.0000
  H   H67       1.0  0.50703  0.58124  0.66272  1.0000
  H   H68       1.0  0.46541  0.58108  0.59122  1.0000
  C   C114      1.0  0.38078  0.64364  0.80941  1.0000
  C   C115      1.0  0.34102  0.65895  0.85408  1.0000
  C   C116      1.0  0.39078  0.85473  0.87058  1.0000
  H   H69       1.0  0.37664  0.56166  0.78593  1.0000
  H   H70       1.0  0.46418  0.90770  0.81468  1.0000
  C   C117      1.0  0.34660  0.76373  0.88511  1.0000
  H   H71       1.0  0.30744  0.58661  0.86527  1.0000
  H   H72       1.0  0.39586  0.93605  0.89394  1.0000
  H   H73       1.0  0.65532  0.87690  0.84235  1.0000
  P   P19       1.0  0.62326  0.73991  0.93731  1.0000
  O   O55       1.0  0.66232  0.61851  0.95043  1.0000
  O   O56       1.0  0.65425  0.87880  0.94492  1.0000
  O   O57       1.0  0.56958  0.74060  0.98040  1.0000
  O   O58       1.0  0.70438  0.91724  0.52869  1.0000
  O   O59       1.0  0.75675  0.69632  0.54777  1.0000
  O   O60       1.0  0.65967  0.66786  0.52139  1.0000
  P   P20       1.0  0.69448  0.76543  0.55146  1.0000
  C   C118      1.0  0.52900  0.71645  0.74994  1.0000
  C   C119      1.0  0.59860  0.72694  0.88007  1.0000
  C   C120      1.0  0.62091  0.80908  0.84050  1.0000
  C   C121      1.0  0.59832  0.80506  0.79845  1.0000
  C   C122      1.0  0.55218  0.72065  0.79571  1.0000
  C   C123      1.0  0.52979  0.64113  0.83640  1.0000
  C   C124      1.0  0.55320  0.64264  0.87780  1.0000
  C   C125      1.0  0.57292  0.73119  0.70364  1.0000
  C   C126      1.0  0.56990  0.83883  0.67378  1.0000
  C   C127      1.0  0.60922  0.85473  0.62942  1.0000
  H   H74       1.0  0.61630  0.86992  0.76841  1.0000
  C   C128      1.0  0.65898  0.65895  0.64592  1.0000
  C   C129      1.0  0.61922  0.64364  0.69059  1.0000
  H   H75       1.0  0.53582  0.90770  0.68532  1.0000
  H   H76       1.0  0.49297  0.58124  0.83728  1.0000
  C   C130      1.0  0.65340  0.76373  0.61489  1.0000
  H   H77       1.0  0.62336  0.56166  0.71407  1.0000
  H   H78       1.0  0.69256  0.58661  0.63473  1.0000
  H   H79       1.0  0.60414  0.93605  0.60606  1.0000
  H   H80       1.0  0.53459  0.58108  0.90878  1.0000
  O   O61       1.0  0.65425  0.62120  0.44492  1.0000
  O   O62       1.0  0.56958  0.75939  0.48040  1.0000
  O   O63       1.0  0.70438  0.58276  0.02869  1.0000
  O   O64       1.0  0.75675  0.80368  0.04777  1.0000
  O   O65       1.0  0.65967  0.83215  0.02139  1.0000
  P   P21       1.0  0.69448  0.73457  0.05146  1.0000
  C   C131      1.0  0.52900  0.78355  0.24994  1.0000
  C   C132      1.0  0.59860  0.77306  0.38007  1.0000
  C   C133      1.0  0.62091  0.69091  0.34050  1.0000
  C   C134      1.0  0.59832  0.69493  0.29845  1.0000
  C   C135      1.0  0.55218  0.77935  0.29571  1.0000
  C   C136      1.0  0.52979  0.85887  0.33640  1.0000
  C   C137      1.0  0.55320  0.85736  0.37780  1.0000
  C   C138      1.0  0.57292  0.76880  0.20364  1.0000
  C   C139      1.0  0.56990  0.66118  0.17378  1.0000
  C   C140      1.0  0.60922  0.64527  0.12942  1.0000
  C   C141      1.0  0.65340  0.73628  0.11489  1.0000
  C   C142      1.0  0.65898  0.84106  0.14592  1.0000
  C   C143      1.0  0.61922  0.85636  0.19059  1.0000
  H   H81       1.0  0.65532  0.62310  0.34235  1.0000
  H   H82       1.0  0.61630  0.63008  0.26841  1.0000
  H   H83       1.0  0.49297  0.91876  0.33728  1.0000
  H   H84       1.0  0.53459  0.91892  0.40878  1.0000
  H   H85       1.0  0.53582  0.59230  0.18532  1.0000
  H   H86       1.0  0.60414  0.56395  0.10606  1.0000
  H   H87       1.0  0.69256  0.91339  0.13473  1.0000
  H   H88       1.0  0.62336  0.93834  0.21407  1.0000
  P   P22       1.0  0.37674  0.76009  0.06269  1.0000
  O   O66       1.0  0.33768  0.88149  0.04957  1.0000
  O   O67       1.0  0.34575  0.62120  0.05508  1.0000
  O   O68       1.0  0.43042  0.75939  0.01960  1.0000
  O   O69       1.0  0.29562  0.58276  0.47131  1.0000
  O   O70       1.0  0.24325  0.80368  0.45223  1.0000
  O   O71       1.0  0.34033  0.83215  0.47861  1.0000
  P   P23       1.0  0.30552  0.73457  0.44854  1.0000
  C   C144      1.0  0.47100  0.78355  0.25006  1.0000
  C   C145      1.0  0.40140  0.77306  0.11993  1.0000
  C   C146      1.0  0.37909  0.69091  0.15950  1.0000
  C   C147      1.0  0.40168  0.69493  0.20155  1.0000
  C   C148      1.0  0.44782  0.77935  0.20429  1.0000
  C   C149      1.0  0.47021  0.85887  0.16360  1.0000
  C   C150      1.0  0.44680  0.85736  0.12220  1.0000
  C   C151      1.0  0.42708  0.76880  0.29636  1.0000
  C   C152      1.0  0.43010  0.66118  0.32622  1.0000
  C   C153      1.0  0.39078  0.64527  0.37058  1.0000
  C   C154      1.0  0.34660  0.73628  0.38511  1.0000
  C   C155      1.0  0.34102  0.84106  0.35408  1.0000
  C   C156      1.0  0.38078  0.85636  0.30941  1.0000
  H   H89       1.0  0.34468  0.62310  0.15765  1.0000
  H   H90       1.0  0.38370  0.63008  0.23159  1.0000
  H   H91       1.0  0.50703  0.91876  0.16272  1.0000
  H   H92       1.0  0.46541  0.91892  0.09122  1.0000
  H   H93       1.0  0.46418  0.59230  0.31468  1.0000
  H   H94       1.0  0.39586  0.56395  0.39394  1.0000
  H   H95       1.0  0.30744  0.91339  0.36527  1.0000
  H   H96       1.0  0.37664  0.93834  0.28593  1.0000
  P   P24       1.0  0.62326  0.76009  0.43731  1.0000
  O   O72       1.0  0.66232  0.88149  0.45043  1.0000
  P   P25       1.0  0.87674  0.98991  0.56269  1.0000
  O   O73       1.0  0.83768  0.86851  0.54957  1.0000
  O   O74       1.0  0.84575  0.62880  0.55508  1.0000
  O   O75       1.0  0.93042  0.99061  0.51960  1.0000
  O   O76       1.0  0.79562  0.66724  0.97131  1.0000
  O   O77       1.0  0.74325  0.94632  0.95223  1.0000
  O   O78       1.0  0.84033  0.91785  0.97861  1.0000
  P   P26       1.0  0.80552  0.51543  0.94854  1.0000
  C   C157      1.0  0.97100  0.96646  0.75006  1.0000
  C   C158      1.0  0.90140  0.97694  0.61993  1.0000
  C   C159      1.0  0.87909  0.55908  0.65950  1.0000
  C   C160      1.0  0.90168  0.55507  0.70155  1.0000
  C   C161      1.0  0.94782  0.97065  0.70429  1.0000
  C   C162      1.0  0.97021  0.89113  0.66360  1.0000
  C   C163      1.0  0.94680  0.89264  0.62220  1.0000
  C   C164      1.0  0.92708  0.98120  0.79636  1.0000
  C   C165      1.0  0.93010  0.58883  0.82622  1.0000
  H   H97       1.0  0.84468  0.62690  0.65765  1.0000
  H   H98       1.0  0.88370  0.61992  0.73159  1.0000
  H   H99       1.0  0.00703  0.83124  0.66272  1.0000
  H   H100      1.0  0.96541  0.83108  0.59122  1.0000
  C   C166      1.0  0.88078  0.89364  0.80941  1.0000
  C   C167      1.0  0.84102  0.90895  0.85408  1.0000
  C   C168      1.0  0.89078  0.60473  0.87058  1.0000
  H   H101      1.0  0.87664  0.81166  0.78593  1.0000
  H   H102      1.0  0.96418  0.65770  0.81468  1.0000
  C   C169      1.0  0.84660  0.51372  0.88511  1.0000
  H   H103      1.0  0.80744  0.83660  0.86527  1.0000
  H   H104      1.0  0.89586  0.68605  0.89394  1.0000
  H   H105      1.0  0.15532  0.62690  0.84235  1.0000
  P   P27       1.0  0.12326  0.98991  0.93731  1.0000
  O   O79       1.0  0.16232  0.86851  0.95043  1.0000
  O   O80       1.0  0.15425  0.62880  0.94492  1.0000
  O   O81       1.0  0.06958  0.99061  0.98040  1.0000
  O   O82       1.0  0.20438  0.66724  0.52869  1.0000
  O   O83       1.0  0.25675  0.94632  0.54777  1.0000
  O   O84       1.0  0.15967  0.91785  0.52139  1.0000
  P   P28       1.0  0.19448  0.51543  0.55146  1.0000
  C   C170      1.0  0.02900  0.96646  0.74994  1.0000
  C   C171      1.0  0.09860  0.97694  0.88007  1.0000
  C   C172      1.0  0.12091  0.55908  0.84050  1.0000
  C   C173      1.0  0.09832  0.55507  0.79845  1.0000
  C   C174      1.0  0.05218  0.97065  0.79571  1.0000
  C   C175      1.0  0.02979  0.89113  0.83640  1.0000
  C   C176      1.0  0.05320  0.89264  0.87780  1.0000
  C   C177      1.0  0.07292  0.98120  0.70364  1.0000
  C   C178      1.0  0.06990  0.58883  0.67378  1.0000
  C   C179      1.0  0.10922  0.60473  0.62942  1.0000
  H   H106      1.0  0.11630  0.61992  0.76841  1.0000
  C   C180      1.0  0.15898  0.90895  0.64592  1.0000
  C   C181      1.0  0.11922  0.89364  0.69059  1.0000
  H   H107      1.0  0.03582  0.65770  0.68532  1.0000
  H   H108      1.0  0.99297  0.83124  0.83728  1.0000
  C   C182      1.0  0.15340  0.51372  0.61489  1.0000
  H   H109      1.0  0.12336  0.81166  0.71407  1.0000
  H   H110      1.0  0.10414  0.68605  0.60606  1.0000
  H   H111      1.0  0.19256  0.83660  0.63473  1.0000
  H   H112      1.0  0.03459  0.83108  0.90878  1.0000
  P   P29       1.0  0.12326  0.51009  0.43731  1.0000
  O   O85       1.0  0.16232  0.63149  0.45043  1.0000
  O   O86       1.0  0.15425  0.87120  0.44492  1.0000
  O   O87       1.0  0.06958  0.50939  0.48040  1.0000
  O   O88       1.0  0.20438  0.83275  0.02869  1.0000
  O   O89       1.0  0.25675  0.55368  0.04777  1.0000
  O   O90       1.0  0.15967  0.58215  0.02139  1.0000
  P   P30       1.0  0.19448  0.98457  0.05146  1.0000
  C   C183      1.0  0.02900  0.53354  0.24994  1.0000
  C   C184      1.0  0.09860  0.52306  0.38007  1.0000
  C   C185      1.0  0.12091  0.94092  0.34050  1.0000
  C   C186      1.0  0.09832  0.94493  0.29845  1.0000
  C   C187      1.0  0.05218  0.52935  0.29571  1.0000
  C   C188      1.0  0.02979  0.60887  0.33640  1.0000
  C   C189      1.0  0.05320  0.60736  0.37780  1.0000
  C   C190      1.0  0.07292  0.51880  0.20364  1.0000
  C   C191      1.0  0.06990  0.91118  0.17378  1.0000
  C   C192      1.0  0.10922  0.89527  0.12942  1.0000
  C   C193      1.0  0.15340  0.98628  0.11489  1.0000
  C   C194      1.0  0.15898  0.59105  0.14592  1.0000
  C   C195      1.0  0.11922  0.60637  0.19059  1.0000
  H   H113      1.0  0.15532  0.87310  0.34235  1.0000
  H   H114      1.0  0.11630  0.88008  0.26841  1.0000
  H   H115      1.0  0.99297  0.66876  0.33728  1.0000
  H   H116      1.0  0.03459  0.66892  0.40878  1.0000
  H   H117      1.0  0.03582  0.84230  0.18532  1.0000
  H   H118      1.0  0.10414  0.81395  0.10606  1.0000
  H   H119      1.0  0.19256  0.66340  0.13473  1.0000
  H   H120      1.0  0.12336  0.68834  0.21407  1.0000
  P   P31       1.0  0.87674  0.51009  0.06269  1.0000
  O   O91       1.0  0.83768  0.63149  0.04957  1.0000
  O   O92       1.0  0.84575  0.87120  0.05508  1.0000
  O   O93       1.0  0.93042  0.50939  0.01960  1.0000
  O   O94       1.0  0.79562  0.83275  0.47131  1.0000
  O   O95       1.0  0.74325  0.55368  0.45223  1.0000
  O   O96       1.0  0.84033  0.58215  0.47861  1.0000
  P   P32       1.0  0.80552  0.98457  0.44854  1.0000
  C   C196      1.0  0.97100  0.53354  0.25006  1.0000
  C   C197      1.0  0.90140  0.52306  0.11993  1.0000
  C   C198      1.0  0.87909  0.94092  0.15950  1.0000
  C   C199      1.0  0.90168  0.94493  0.20155  1.0000
  C   C200      1.0  0.94782  0.52935  0.20429  1.0000
  C   C201      1.0  0.97021  0.60887  0.16360  1.0000
  C   C202      1.0  0.94680  0.60736  0.12220  1.0000
  C   C203      1.0  0.92708  0.51880  0.29636  1.0000
  C   C204      1.0  0.93010  0.91118  0.32622  1.0000
  C   C205      1.0  0.89078  0.89527  0.37058  1.0000
  C   C206      1.0  0.84660  0.98628  0.38511  1.0000
  C   C207      1.0  0.84102  0.59105  0.35408  1.0000
  C   C208      1.0  0.88078  0.60637  0.30941  1.0000
  H   H121      1.0  0.84468  0.87310  0.15765  1.0000
  H   H122      1.0  0.88370  0.88008  0.23159  1.0000
  H   H123      1.0  0.00703  0.66876  0.16272  1.0000
  H   H124      1.0  0.96541  0.66892  0.09122  1.0000
  H   H125      1.0  0.96418  0.84230  0.31468  1.0000
  H   H126      1.0  0.89586  0.81395  0.39394  1.0000
  H   H127      1.0  0.80744  0.66340  0.36527  1.0000
  H   H128      1.0  0.87664  0.68834  0.28593  1.0000
  Ga  Ga9       1.0  0.32760  0.98584  0.51421  1.0000
  Ga  Ga10      1.0  0.82760  0.76416  0.01421  1.0000
  Ga  Ga11      1.0  0.32760  0.51416  0.01421  1.0000
  Ga  Ga12      1.0  0.17240  0.76416  0.48579  1.0000
  Ga  Ga13      1.0  0.67240  0.51416  0.48579  1.0000
  Ga  Ga14      1.0  0.17240  0.73584  0.98579  1.0000
  Ga  Ga15      1.0  0.67240  0.98584  0.98579  1.0000
  Ga  Ga16      1.0  0.82760  0.73584  0.51421  1.0000
