data_image0
_chemical_formula_structural       PO6PC9H4C3H2CH2PO6PC10H2C2H4CH2O5PC13H8PO6PC13H8POPO6PC9H4C3H2CH2PO6PC10H2C2H4CH2PO6PC13H8PO6PC13H8Fe8PO6PC9H4C3H2CH2PO6PC10H2C2H4CH2O5PC13H8PO6PC13H8POPO6PC9H4C3H2CH2PO6PC10H2C2H4CH2PO6PC13H8PO6PC13H8Fe8
_chemical_formula_sum              "P32 O96 C208 H128 Fe16"
_cell_length_a       22.55
_cell_length_b       10.4512
_cell_length_c       29.039
_cell_angle_alpha    90
_cell_angle_beta     78.153
_cell_angle_gamma    90

_space_group_name_H-M_alt    "P 1"
_space_group_IT_number       1

loop_
  _space_group_symop_operation_xyz
  'x, y, z'

loop_
  _atom_site_type_symbol
  _atom_site_label
  _atom_site_symmetry_multiplicity
  _atom_site_fract_x
  _atom_site_fract_y
  _atom_site_fract_z
  _atom_site_occupancy
  P   P1        1.0  0.30794  0.22569  0.45256  1.0000
  O   O1        1.0  0.30332  0.05792  0.46420  1.0000
  O   O2        1.0  0.23674  0.23163  0.43662  1.0000
  O   O3        1.0  0.29530  0.31411  0.50586  1.0000
  O   O4        1.0  0.27485  0.26182  0.09771  1.0000
  O   O5        1.0  0.37017  0.10198  0.06498  1.0000
  O   O6        1.0  0.37618  0.35700  0.02603  1.0000
  P   P2        1.0  0.35273  0.26521  0.07855  1.0000
  C   C1        1.0  0.46889  0.31814  0.25220  1.0000
  C   C2        1.0  0.35552  0.26325  0.39218  1.0000
  C   C3        1.0  0.35427  0.17692  0.35522  1.0000
  C   C4        1.0  0.38850  0.19792  0.30957  1.0000
  C   C5        1.0  0.42634  0.30523  0.29942  1.0000
  C   C6        1.0  0.42474  0.39540  0.33529  1.0000
  C   C7        1.0  0.38794  0.37744  0.38017  1.0000
  C   C8        1.0  0.44112  0.31133  0.20968  1.0000
  C   C9        1.0  0.45660  0.21103  0.17766  1.0000
  H   H1        1.0  0.32648  0.09234  0.36152  1.0000
  H   H2        1.0  0.38732  0.12734  0.28266  1.0000
  H   H3        1.0  0.45128  0.48091  0.32831  1.0000
  H   H4        1.0  0.38342  0.45669  0.40371  1.0000
  C   C10       1.0  0.39870  0.40253  0.20108  1.0000
  C   C11       1.0  0.37383  0.39442  0.16044  1.0000
  C   C12       1.0  0.43348  0.20467  0.13682  1.0000
  H   H5        1.0  0.38465  0.47931  0.22574  1.0000
  H   H6        1.0  0.48640  0.13686  0.18474  1.0000
  C   C13       1.0  0.39149  0.29540  0.12789  1.0000
  H   H7        1.0  0.34011  0.46331  0.15494  1.0000
  H   H8        1.0  0.44732  0.12569  0.11299  1.0000
  P   P3        1.0  0.69206  0.22569  0.04744  1.0000
  O   O7        1.0  0.69668  0.05792  0.03580  1.0000
  O   O8        1.0  0.76326  0.23163  0.06338  1.0000
  O   O9        1.0  0.70470  0.31411  0.99414  1.0000
  O   O10       1.0  0.72515  0.26182  0.40229  1.0000
  O   O11       1.0  0.62983  0.10198  0.43502  1.0000
  O   O12       1.0  0.62382  0.35700  0.47397  1.0000
  P   P4        1.0  0.64727  0.26521  0.42145  1.0000
  C   C14       1.0  0.53111  0.31814  0.24780  1.0000
  C   C15       1.0  0.64448  0.26325  0.10782  1.0000
  C   C16       1.0  0.64573  0.17692  0.14478  1.0000
  C   C17       1.0  0.61150  0.19792  0.19043  1.0000
  C   C18       1.0  0.57366  0.30523  0.20058  1.0000
  C   C19       1.0  0.57526  0.39540  0.16471  1.0000
  C   C20       1.0  0.61206  0.37744  0.11983  1.0000
  C   C21       1.0  0.55888  0.31133  0.29032  1.0000
  C   C22       1.0  0.54340  0.21103  0.32234  1.0000
  C   C23       1.0  0.56652  0.20467  0.36318  1.0000
  H   H9        1.0  0.61268  0.12734  0.21734  1.0000
  H   H10       1.0  0.54872  0.48091  0.17169  1.0000
  C   C24       1.0  0.60130  0.40253  0.29892  1.0000
  C   C25       1.0  0.62617  0.39442  0.33956  1.0000
  H   H11       1.0  0.51360  0.13686  0.31526  1.0000
  H   H12       1.0  0.67352  0.09234  0.13848  1.0000
  H   H13       1.0  0.61535  0.47931  0.27426  1.0000
  H   H14       1.0  0.61658  0.45669  0.09629  1.0000
  C   C26       1.0  0.60851  0.29540  0.37211  1.0000
  H   H15       1.0  0.65989  0.46331  0.34506  1.0000
  H   H16       1.0  0.55268  0.12569  0.38701  1.0000
  O   O13       1.0  0.76326  0.26837  0.56338  1.0000
  O   O14       1.0  0.70470  0.18589  0.49414  1.0000
  O   O15       1.0  0.72515  0.23819  0.90229  1.0000
  O   O16       1.0  0.62983  0.39802  0.93502  1.0000
  O   O17       1.0  0.62382  0.14300  0.97397  1.0000
  P   P5        1.0  0.64727  0.23479  0.92145  1.0000
  C   C27       1.0  0.53111  0.18186  0.74780  1.0000
  C   C28       1.0  0.64448  0.23675  0.60782  1.0000
  C   C29       1.0  0.64573  0.32308  0.64478  1.0000
  C   C30       1.0  0.61150  0.30208  0.69043  1.0000
  C   C31       1.0  0.57366  0.19477  0.70058  1.0000
  C   C32       1.0  0.57526  0.10460  0.66471  1.0000
  C   C33       1.0  0.61206  0.12255  0.61983  1.0000
  C   C34       1.0  0.55888  0.18868  0.79032  1.0000
  C   C35       1.0  0.54340  0.28897  0.82234  1.0000
  C   C36       1.0  0.56652  0.29533  0.86318  1.0000
  C   C37       1.0  0.60851  0.20460  0.87211  1.0000
  C   C38       1.0  0.62617  0.10558  0.83956  1.0000
  C   C39       1.0  0.60130  0.09747  0.79892  1.0000
  H   H17       1.0  0.67352  0.40766  0.63848  1.0000
  H   H18       1.0  0.61268  0.37266  0.71734  1.0000
  H   H19       1.0  0.54872  0.01909  0.67169  1.0000
  H   H20       1.0  0.61658  0.04331  0.59629  1.0000
  H   H21       1.0  0.51360  0.36314  0.81526  1.0000
  H   H22       1.0  0.55268  0.37431  0.88701  1.0000
  H   H23       1.0  0.65989  0.03669  0.84506  1.0000
  H   H24       1.0  0.61535  0.02068  0.77426  1.0000
  P   P6        1.0  0.30794  0.27431  0.95256  1.0000
  O   O18       1.0  0.30332  0.44207  0.96420  1.0000
  O   O19       1.0  0.23674  0.26837  0.93662  1.0000
  O   O20       1.0  0.29530  0.18589  0.00586  1.0000
  O   O21       1.0  0.27485  0.23819  0.59771  1.0000
  O   O22       1.0  0.37017  0.39802  0.56498  1.0000
  O   O23       1.0  0.37618  0.14300  0.52603  1.0000
  P   P7        1.0  0.35273  0.23479  0.57855  1.0000
  C   C40       1.0  0.46889  0.18186  0.75220  1.0000
  C   C41       1.0  0.35552  0.23675  0.89218  1.0000
  C   C42       1.0  0.35427  0.32308  0.85522  1.0000
  C   C43       1.0  0.38850  0.30208  0.80957  1.0000
  C   C44       1.0  0.42634  0.19477  0.79942  1.0000
  C   C45       1.0  0.42474  0.10460  0.83529  1.0000
  C   C46       1.0  0.38794  0.12255  0.88017  1.0000
  C   C47       1.0  0.44112  0.18868  0.70968  1.0000
  C   C48       1.0  0.45660  0.28897  0.67766  1.0000
  C   C49       1.0  0.43348  0.29533  0.63682  1.0000
  C   C50       1.0  0.39149  0.20460  0.62789  1.0000
  C   C51       1.0  0.37383  0.10558  0.66044  1.0000
  C   C52       1.0  0.39870  0.09747  0.70108  1.0000
  H   H25       1.0  0.32648  0.40766  0.86152  1.0000
  H   H26       1.0  0.38732  0.37266  0.78266  1.0000
  H   H27       1.0  0.45128  0.01909  0.82831  1.0000
  H   H28       1.0  0.38342  0.04331  0.90371  1.0000
  H   H29       1.0  0.48640  0.36314  0.68474  1.0000
  H   H30       1.0  0.44732  0.37431  0.61299  1.0000
  H   H31       1.0  0.34011  0.03669  0.65494  1.0000
  H   H32       1.0  0.38465  0.02068  0.72574  1.0000
  P   P8        1.0  0.69206  0.27431  0.54744  1.0000
  O   O24       1.0  0.69668  0.44207  0.53580  1.0000
  P   P9        1.0  0.80794  0.47569  0.45256  1.0000
  O   O25       1.0  0.80332  0.30793  0.46420  1.0000
  O   O26       1.0  0.73674  0.48163  0.43662  1.0000
  O   O27       1.0  0.79530  0.06411  0.50586  1.0000
  O   O28       1.0  0.77485  0.01182  0.09771  1.0000
  O   O29       1.0  0.87017  0.35198  0.06498  1.0000
  O   O30       1.0  0.87618  0.10700  0.02603  1.0000
  P   P10       1.0  0.85273  0.01521  0.07855  1.0000
  C   C53       1.0  0.96889  0.06814  0.25220  1.0000
  C   C54       1.0  0.85552  0.01325  0.39218  1.0000
  C   C55       1.0  0.85427  0.42692  0.35522  1.0000
  C   C56       1.0  0.88850  0.44792  0.30957  1.0000
  C   C57       1.0  0.92634  0.05523  0.29942  1.0000
  C   C58       1.0  0.92474  0.14540  0.33529  1.0000
  C   C59       1.0  0.88794  0.12745  0.38017  1.0000
  C   C60       1.0  0.94112  0.06132  0.20968  1.0000
  C   C61       1.0  0.95660  0.46103  0.17766  1.0000
  H   H33       1.0  0.82648  0.34234  0.36152  1.0000
  H   H34       1.0  0.88732  0.37734  0.28266  1.0000
  H   H35       1.0  0.95128  0.23091  0.32831  1.0000
  H   H36       1.0  0.88342  0.20669  0.40371  1.0000
  C   C62       1.0  0.89870  0.15252  0.20108  1.0000
  C   C63       1.0  0.87383  0.14442  0.16044  1.0000
  C   C64       1.0  0.93348  0.45467  0.13682  1.0000
  H   H37       1.0  0.88465  0.22931  0.22574  1.0000
  H   H38       1.0  0.98640  0.38686  0.18474  1.0000
  C   C65       1.0  0.89149  0.04540  0.12789  1.0000
  H   H39       1.0  0.84011  0.21331  0.15494  1.0000
  H   H40       1.0  0.94732  0.37569  0.11299  1.0000
  P   P11       1.0  0.19206  0.47569  0.04744  1.0000
  O   O31       1.0  0.19668  0.30793  0.03580  1.0000
  O   O32       1.0  0.26326  0.48163  0.06338  1.0000
  O   O33       1.0  0.20470  0.06411  0.99414  1.0000
  O   O34       1.0  0.22515  0.01182  0.40229  1.0000
  O   O35       1.0  0.12983  0.35198  0.43502  1.0000
  O   O36       1.0  0.12382  0.10700  0.47397  1.0000
  P   P12       1.0  0.14727  0.01521  0.42145  1.0000
  C   C66       1.0  0.03111  0.06814  0.24780  1.0000
  C   C67       1.0  0.14448  0.01325  0.10782  1.0000
  C   C68       1.0  0.14573  0.42692  0.14478  1.0000
  C   C69       1.0  0.11150  0.44792  0.19043  1.0000
  C   C70       1.0  0.07366  0.05523  0.20058  1.0000
  C   C71       1.0  0.07526  0.14540  0.16471  1.0000
  C   C72       1.0  0.11206  0.12745  0.11983  1.0000
  C   C73       1.0  0.05888  0.06132  0.29032  1.0000
  C   C74       1.0  0.04340  0.46103  0.32234  1.0000
  C   C75       1.0  0.06652  0.45467  0.36318  1.0000
  H   H41       1.0  0.11268  0.37734  0.21734  1.0000
  H   H42       1.0  0.04872  0.23091  0.17169  1.0000
  C   C76       1.0  0.10130  0.15252  0.29892  1.0000
  C   C77       1.0  0.12617  0.14442  0.33956  1.0000
  H   H43       1.0  0.01360  0.38686  0.31526  1.0000
  H   H44       1.0  0.17352  0.34234  0.13848  1.0000
  H   H45       1.0  0.11535  0.22931  0.27426  1.0000
  H   H46       1.0  0.11658  0.20669  0.09629  1.0000
  C   C78       1.0  0.10851  0.04540  0.37211  1.0000
  H   H47       1.0  0.15989  0.21331  0.34506  1.0000
  H   H48       1.0  0.05268  0.37569  0.38701  1.0000
  P   P13       1.0  0.19206  0.02431  0.54744  1.0000
  O   O37       1.0  0.19668  0.19207  0.53580  1.0000
  O   O38       1.0  0.26326  0.01837  0.56338  1.0000
  O   O39       1.0  0.20470  0.43589  0.49414  1.0000
  O   O40       1.0  0.22515  0.48818  0.90229  1.0000
  O   O41       1.0  0.12983  0.14802  0.93502  1.0000
  O   O42       1.0  0.12382  0.39300  0.97397  1.0000
  P   P14       1.0  0.14727  0.48479  0.92145  1.0000
  C   C79       1.0  0.03111  0.43186  0.74780  1.0000
  C   C80       1.0  0.14448  0.48675  0.60782  1.0000
  C   C81       1.0  0.14573  0.07308  0.64478  1.0000
  C   C82       1.0  0.11150  0.05208  0.69043  1.0000
  C   C83       1.0  0.07366  0.44477  0.70058  1.0000
  C   C84       1.0  0.07526  0.35460  0.66471  1.0000
  C   C85       1.0  0.11206  0.37256  0.61983  1.0000
  C   C86       1.0  0.05888  0.43867  0.79032  1.0000
  C   C87       1.0  0.04340  0.03897  0.82234  1.0000
  C   C88       1.0  0.06652  0.04533  0.86318  1.0000
  C   C89       1.0  0.10851  0.45460  0.87211  1.0000
  C   C90       1.0  0.12617  0.35558  0.83956  1.0000
  C   C91       1.0  0.10130  0.34747  0.79892  1.0000
  H   H49       1.0  0.17352  0.15766  0.63848  1.0000
  H   H50       1.0  0.11268  0.12266  0.71734  1.0000
  H   H51       1.0  0.04872  0.26909  0.67169  1.0000
  H   H52       1.0  0.11658  0.29331  0.59629  1.0000
  H   H53       1.0  0.01360  0.11314  0.81526  1.0000
  H   H54       1.0  0.05268  0.12431  0.88701  1.0000
  H   H55       1.0  0.15989  0.28669  0.84506  1.0000
  H   H56       1.0  0.11535  0.27069  0.77426  1.0000
  P   P15       1.0  0.80794  0.02431  0.95256  1.0000
  O   O43       1.0  0.80332  0.19207  0.96420  1.0000
  O   O44       1.0  0.73674  0.01837  0.93662  1.0000
  O   O45       1.0  0.79530  0.43589  0.00586  1.0000
  O   O46       1.0  0.77485  0.48818  0.59771  1.0000
  O   O47       1.0  0.87017  0.14802  0.56498  1.0000
  O   O48       1.0  0.87618  0.39300  0.52603  1.0000
  P   P16       1.0  0.85273  0.48479  0.57855  1.0000
  C   C92       1.0  0.96889  0.43186  0.75220  1.0000
  C   C93       1.0  0.85552  0.48675  0.89218  1.0000
  C   C94       1.0  0.85427  0.07308  0.85522  1.0000
  C   C95       1.0  0.88850  0.05208  0.80957  1.0000
  C   C96       1.0  0.92634  0.44477  0.79942  1.0000
  C   C97       1.0  0.92474  0.35460  0.83529  1.0000
  C   C98       1.0  0.88794  0.37256  0.88017  1.0000
  C   C99       1.0  0.94112  0.43867  0.70968  1.0000
  C   C100      1.0  0.95660  0.03897  0.67766  1.0000
  C   C101      1.0  0.93348  0.04533  0.63682  1.0000
  C   C102      1.0  0.89149  0.45460  0.62789  1.0000
  C   C103      1.0  0.87383  0.35558  0.66044  1.0000
  C   C104      1.0  0.89870  0.34747  0.70108  1.0000
  H   H57       1.0  0.82648  0.15766  0.86152  1.0000
  H   H58       1.0  0.88732  0.12266  0.78266  1.0000
  H   H59       1.0  0.95128  0.26909  0.82831  1.0000
  H   H60       1.0  0.88342  0.29331  0.90371  1.0000
  H   H61       1.0  0.98640  0.11314  0.68474  1.0000
  H   H62       1.0  0.94732  0.12431  0.61299  1.0000
  H   H63       1.0  0.84011  0.28669  0.65494  1.0000
  H   H64       1.0  0.88465  0.27069  0.72574  1.0000
  Fe  Fe1       1.0  0.33520  0.02198  0.01593  1.0000
  Fe  Fe2       1.0  0.83520  0.22802  0.51593  1.0000
  Fe  Fe3       1.0  0.33520  0.47802  0.51593  1.0000
  Fe  Fe4       1.0  0.16480  0.22802  0.98407  1.0000
  Fe  Fe5       1.0  0.66480  0.47802  0.98407  1.0000
  Fe  Fe6       1.0  0.16480  0.27198  0.48407  1.0000
  Fe  Fe7       1.0  0.66480  0.02198  0.48407  1.0000
  Fe  Fe8       1.0  0.83520  0.27198  0.01593  1.0000
  P   P17       1.0  0.30794  0.72569  0.45256  1.0000
  O   O49       1.0  0.30332  0.55793  0.46420  1.0000
  O   O50       1.0  0.23674  0.73163  0.43662  1.0000
  O   O51       1.0  0.29530  0.81411  0.50586  1.0000
  O   O52       1.0  0.27485  0.76182  0.09771  1.0000
  O   O53       1.0  0.37017  0.60198  0.06498  1.0000
  O   O54       1.0  0.37618  0.85699  0.02603  1.0000
  P   P18       1.0  0.35273  0.76521  0.07855  1.0000
  C   C105      1.0  0.46889  0.81813  0.25220  1.0000
  C   C106      1.0  0.35552  0.76325  0.39218  1.0000
  C   C107      1.0  0.35427  0.67692  0.35522  1.0000
  C   C108      1.0  0.38850  0.69792  0.30957  1.0000
  C   C109      1.0  0.42634  0.80523  0.29942  1.0000
  C   C110      1.0  0.42474  0.89540  0.33529  1.0000
  C   C111      1.0  0.38794  0.87744  0.38017  1.0000
  C   C112      1.0  0.44112  0.81133  0.20968  1.0000
  C   C113      1.0  0.45660  0.71103  0.17766  1.0000
  H   H65       1.0  0.32648  0.59233  0.36152  1.0000
  H   H66       1.0  0.38732  0.62734  0.28266  1.0000
  H   H67       1.0  0.45128  0.98091  0.32831  1.0000
  H   H68       1.0  0.38342  0.95669  0.40371  1.0000
  C   C114      1.0  0.39870  0.90252  0.20108  1.0000
  C   C115      1.0  0.37383  0.89442  0.16044  1.0000
  C   C116      1.0  0.43348  0.70467  0.13682  1.0000
  H   H69       1.0  0.38465  0.97932  0.22574  1.0000
  H   H70       1.0  0.48640  0.63686  0.18474  1.0000
  C   C117      1.0  0.39149  0.79540  0.12789  1.0000
  H   H71       1.0  0.34011  0.96331  0.15494  1.0000
  H   H72       1.0  0.44732  0.62569  0.11299  1.0000
  P   P19       1.0  0.69206  0.72569  0.04744  1.0000
  O   O55       1.0  0.69668  0.55793  0.03580  1.0000
  O   O56       1.0  0.76326  0.73163  0.06338  1.0000
  O   O57       1.0  0.70470  0.81411  0.99414  1.0000
  O   O58       1.0  0.72515  0.76182  0.40229  1.0000
  O   O59       1.0  0.62983  0.60198  0.43502  1.0000
  O   O60       1.0  0.62382  0.85699  0.47397  1.0000
  P   P20       1.0  0.64727  0.76521  0.42145  1.0000
  C   C118      1.0  0.53111  0.81813  0.24780  1.0000
  C   C119      1.0  0.64448  0.76325  0.10782  1.0000
  C   C120      1.0  0.64573  0.67692  0.14478  1.0000
  C   C121      1.0  0.61150  0.69792  0.19043  1.0000
  C   C122      1.0  0.57366  0.80523  0.20058  1.0000
  C   C123      1.0  0.57526  0.89540  0.16471  1.0000
  C   C124      1.0  0.61206  0.87744  0.11983  1.0000
  C   C125      1.0  0.55888  0.81133  0.29032  1.0000
  C   C126      1.0  0.54340  0.71103  0.32234  1.0000
  C   C127      1.0  0.56652  0.70467  0.36318  1.0000
  H   H73       1.0  0.61268  0.62734  0.21734  1.0000
  H   H74       1.0  0.54872  0.98091  0.17169  1.0000
  C   C128      1.0  0.60130  0.90252  0.29892  1.0000
  C   C129      1.0  0.62617  0.89442  0.33956  1.0000
  H   H75       1.0  0.51360  0.63686  0.31526  1.0000
  H   H76       1.0  0.67352  0.59233  0.13848  1.0000
  H   H77       1.0  0.61535  0.97932  0.27426  1.0000
  H   H78       1.0  0.61658  0.95669  0.09629  1.0000
  C   C130      1.0  0.60851  0.79540  0.37211  1.0000
  H   H79       1.0  0.65989  0.96331  0.34506  1.0000
  H   H80       1.0  0.55268  0.62569  0.38701  1.0000
  O   O61       1.0  0.76326  0.76837  0.56338  1.0000
  O   O62       1.0  0.70470  0.68589  0.49414  1.0000
  O   O63       1.0  0.72515  0.73819  0.90229  1.0000
  O   O64       1.0  0.62983  0.89802  0.93502  1.0000
  O   O65       1.0  0.62382  0.64300  0.97397  1.0000
  P   P21       1.0  0.64727  0.73479  0.92145  1.0000
  C   C131      1.0  0.53111  0.68186  0.74780  1.0000
  C   C132      1.0  0.64448  0.73675  0.60782  1.0000
  C   C133      1.0  0.64573  0.82307  0.64478  1.0000
  C   C134      1.0  0.61150  0.80208  0.69043  1.0000
  C   C135      1.0  0.57366  0.69477  0.70058  1.0000
  C   C136      1.0  0.57526  0.60460  0.66471  1.0000
  C   C137      1.0  0.61206  0.62256  0.61983  1.0000
  C   C138      1.0  0.55888  0.68868  0.79032  1.0000
  C   C139      1.0  0.54340  0.78897  0.82234  1.0000
  C   C140      1.0  0.56652  0.79533  0.86318  1.0000
  C   C141      1.0  0.60851  0.70460  0.87211  1.0000
  C   C142      1.0  0.62617  0.60558  0.83956  1.0000
  C   C143      1.0  0.60130  0.59747  0.79892  1.0000
  H   H81       1.0  0.67352  0.90766  0.63848  1.0000
  H   H82       1.0  0.61268  0.87266  0.71734  1.0000
  H   H83       1.0  0.54872  0.51909  0.67169  1.0000
  H   H84       1.0  0.61658  0.54331  0.59629  1.0000
  H   H85       1.0  0.51360  0.86314  0.81526  1.0000
  H   H86       1.0  0.55268  0.87431  0.88701  1.0000
  H   H87       1.0  0.65989  0.53668  0.84506  1.0000
  H   H88       1.0  0.61535  0.52068  0.77426  1.0000
  P   P22       1.0  0.30794  0.77431  0.95256  1.0000
  O   O66       1.0  0.30332  0.94207  0.96420  1.0000
  O   O67       1.0  0.23674  0.76837  0.93662  1.0000
  O   O68       1.0  0.29530  0.68589  0.00586  1.0000
  O   O69       1.0  0.27485  0.73819  0.59771  1.0000
  O   O70       1.0  0.37017  0.89802  0.56498  1.0000
  O   O71       1.0  0.37618  0.64300  0.52603  1.0000
  P   P23       1.0  0.35273  0.73479  0.57855  1.0000
  C   C144      1.0  0.46889  0.68186  0.75220  1.0000
  C   C145      1.0  0.35552  0.73675  0.89218  1.0000
  C   C146      1.0  0.35427  0.82307  0.85522  1.0000
  C   C147      1.0  0.38850  0.80208  0.80957  1.0000
  C   C148      1.0  0.42634  0.69477  0.79942  1.0000
  C   C149      1.0  0.42474  0.60460  0.83529  1.0000
  C   C150      1.0  0.38794  0.62256  0.88017  1.0000
  C   C151      1.0  0.44112  0.68868  0.70968  1.0000
  C   C152      1.0  0.45660  0.78897  0.67766  1.0000
  C   C153      1.0  0.43348  0.79533  0.63682  1.0000
  C   C154      1.0  0.39149  0.70460  0.62789  1.0000
  C   C155      1.0  0.37383  0.60558  0.66044  1.0000
  C   C156      1.0  0.39870  0.59747  0.70108  1.0000
  H   H89       1.0  0.32648  0.90766  0.86152  1.0000
  H   H90       1.0  0.38732  0.87266  0.78266  1.0000
  H   H91       1.0  0.45128  0.51909  0.82831  1.0000
  H   H92       1.0  0.38342  0.54331  0.90371  1.0000
  H   H93       1.0  0.48640  0.86314  0.68474  1.0000
  H   H94       1.0  0.44732  0.87431  0.61299  1.0000
  H   H95       1.0  0.34011  0.53668  0.65494  1.0000
  H   H96       1.0  0.38465  0.52068  0.72574  1.0000
  P   P24       1.0  0.69206  0.77431  0.54744  1.0000
  O   O72       1.0  0.69668  0.94207  0.53580  1.0000
  P   P25       1.0  0.80794  0.97569  0.45256  1.0000
  O   O73       1.0  0.80332  0.80793  0.46420  1.0000
  O   O74       1.0  0.73674  0.98163  0.43662  1.0000
  O   O75       1.0  0.79530  0.56411  0.50586  1.0000
  O   O76       1.0  0.77485  0.51182  0.09771  1.0000
  O   O77       1.0  0.87017  0.85198  0.06498  1.0000
  O   O78       1.0  0.87618  0.60700  0.02603  1.0000
  P   P26       1.0  0.85273  0.51521  0.07855  1.0000
  C   C157      1.0  0.96889  0.56813  0.25220  1.0000
  C   C158      1.0  0.85552  0.51325  0.39218  1.0000
  C   C159      1.0  0.85427  0.92692  0.35522  1.0000
  C   C160      1.0  0.88850  0.94792  0.30957  1.0000
  C   C161      1.0  0.92634  0.55523  0.29942  1.0000
  C   C162      1.0  0.92474  0.64540  0.33529  1.0000
  C   C163      1.0  0.88794  0.62744  0.38017  1.0000
  C   C164      1.0  0.94112  0.56133  0.20968  1.0000
  C   C165      1.0  0.95660  0.96103  0.17766  1.0000
  H   H97       1.0  0.82648  0.84233  0.36152  1.0000
  H   H98       1.0  0.88732  0.87734  0.28266  1.0000
  H   H99       1.0  0.95128  0.73091  0.32831  1.0000
  H   H100      1.0  0.88342  0.70669  0.40371  1.0000
  C   C166      1.0  0.89870  0.65253  0.20108  1.0000
  C   C167      1.0  0.87383  0.64442  0.16044  1.0000
  C   C168      1.0  0.93348  0.95467  0.13682  1.0000
  H   H101      1.0  0.88465  0.72932  0.22574  1.0000
  H   H102      1.0  0.98640  0.88686  0.18474  1.0000
  C   C169      1.0  0.89149  0.54540  0.12789  1.0000
  H   H103      1.0  0.84011  0.71332  0.15494  1.0000
  H   H104      1.0  0.94732  0.87569  0.11299  1.0000
  P   P27       1.0  0.19206  0.97569  0.04744  1.0000
  O   O79       1.0  0.19668  0.80793  0.03580  1.0000
  O   O80       1.0  0.26326  0.98163  0.06338  1.0000
  O   O81       1.0  0.20470  0.56411  0.99414  1.0000
  O   O82       1.0  0.22515  0.51182  0.40229  1.0000
  O   O83       1.0  0.12983  0.85198  0.43502  1.0000
  O   O84       1.0  0.12382  0.60700  0.47397  1.0000
  P   P28       1.0  0.14727  0.51521  0.42145  1.0000
  C   C170      1.0  0.03111  0.56813  0.24780  1.0000
  C   C171      1.0  0.14448  0.51325  0.10782  1.0000
  C   C172      1.0  0.14573  0.92692  0.14478  1.0000
  C   C173      1.0  0.11150  0.94792  0.19043  1.0000
  C   C174      1.0  0.07366  0.55523  0.20058  1.0000
  C   C175      1.0  0.07526  0.64540  0.16471  1.0000
  C   C176      1.0  0.11206  0.62744  0.11983  1.0000
  C   C177      1.0  0.05888  0.56133  0.29032  1.0000
  C   C178      1.0  0.04340  0.96103  0.32234  1.0000
  C   C179      1.0  0.06652  0.95467  0.36318  1.0000
  H   H105      1.0  0.11268  0.87734  0.21734  1.0000
  H   H106      1.0  0.04872  0.73091  0.17169  1.0000
  C   C180      1.0  0.10130  0.65253  0.29892  1.0000
  C   C181      1.0  0.12617  0.64442  0.33956  1.0000
  H   H107      1.0  0.01360  0.88686  0.31526  1.0000
  H   H108      1.0  0.17352  0.84233  0.13848  1.0000
  H   H109      1.0  0.11535  0.72932  0.27426  1.0000
  H   H110      1.0  0.11658  0.70669  0.09629  1.0000
  C   C182      1.0  0.10851  0.54540  0.37211  1.0000
  H   H111      1.0  0.15989  0.71332  0.34506  1.0000
  H   H112      1.0  0.05268  0.87569  0.38701  1.0000
  P   P29       1.0  0.19206  0.52431  0.54744  1.0000
  O   O85       1.0  0.19668  0.69207  0.53580  1.0000
  O   O86       1.0  0.26326  0.51837  0.56338  1.0000
  O   O87       1.0  0.20470  0.93589  0.49414  1.0000
  O   O88       1.0  0.22515  0.98819  0.90229  1.0000
  O   O89       1.0  0.12983  0.64802  0.93502  1.0000
  O   O90       1.0  0.12382  0.89300  0.97397  1.0000
  P   P30       1.0  0.14727  0.98479  0.92145  1.0000
  C   C183      1.0  0.03111  0.93186  0.74780  1.0000
  C   C184      1.0  0.14448  0.98675  0.60782  1.0000
  C   C185      1.0  0.14573  0.57308  0.64478  1.0000
  C   C186      1.0  0.11150  0.55208  0.69043  1.0000
  C   C187      1.0  0.07366  0.94477  0.70058  1.0000
  C   C188      1.0  0.07526  0.85460  0.66471  1.0000
  C   C189      1.0  0.11206  0.87255  0.61983  1.0000
  C   C190      1.0  0.05888  0.93867  0.79032  1.0000
  C   C191      1.0  0.04340  0.53897  0.82234  1.0000
  C   C192      1.0  0.06652  0.54533  0.86318  1.0000
  C   C193      1.0  0.10851  0.95460  0.87211  1.0000
  C   C194      1.0  0.12617  0.85558  0.83956  1.0000
  C   C195      1.0  0.10130  0.84748  0.79892  1.0000
  H   H113      1.0  0.17352  0.65766  0.63848  1.0000
  H   H114      1.0  0.11268  0.62266  0.71734  1.0000
  H   H115      1.0  0.04872  0.76909  0.67169  1.0000
  H   H116      1.0  0.11658  0.79331  0.59629  1.0000
  H   H117      1.0  0.01360  0.61314  0.81526  1.0000
  H   H118      1.0  0.05268  0.62431  0.88701  1.0000
  H   H119      1.0  0.15989  0.78668  0.84506  1.0000
  H   H120      1.0  0.11535  0.77068  0.77426  1.0000
  P   P31       1.0  0.80794  0.52431  0.95256  1.0000
  O   O91       1.0  0.80332  0.69207  0.96420  1.0000
  O   O92       1.0  0.73674  0.51837  0.93662  1.0000
  O   O93       1.0  0.79530  0.93589  0.00586  1.0000
  O   O94       1.0  0.77485  0.98819  0.59771  1.0000
  O   O95       1.0  0.87017  0.64802  0.56498  1.0000
  O   O96       1.0  0.87618  0.89300  0.52603  1.0000
  P   P32       1.0  0.85273  0.98479  0.57855  1.0000
  C   C196      1.0  0.96889  0.93186  0.75220  1.0000
  C   C197      1.0  0.85552  0.98675  0.89218  1.0000
  C   C198      1.0  0.85427  0.57308  0.85522  1.0000
  C   C199      1.0  0.88850  0.55208  0.80957  1.0000
  C   C200      1.0  0.92634  0.94477  0.79942  1.0000
  C   C201      1.0  0.92474  0.85460  0.83529  1.0000
  C   C202      1.0  0.88794  0.87255  0.88017  1.0000
  C   C203      1.0  0.94112  0.93867  0.70968  1.0000
  C   C204      1.0  0.95660  0.53897  0.67766  1.0000
  C   C205      1.0  0.93348  0.54533  0.63682  1.0000
  C   C206      1.0  0.89149  0.95460  0.62789  1.0000
  C   C207      1.0  0.87383  0.85558  0.66044  1.0000
  C   C208      1.0  0.89870  0.84748  0.70108  1.0000
  H   H121      1.0  0.82648  0.65766  0.86152  1.0000
  H   H122      1.0  0.88732  0.62266  0.78266  1.0000
  H   H123      1.0  0.95128  0.76909  0.82831  1.0000
  H   H124      1.0  0.88342  0.79331  0.90371  1.0000
  H   H125      1.0  0.98640  0.61314  0.68474  1.0000
  H   H126      1.0  0.94732  0.62431  0.61299  1.0000
  H   H127      1.0  0.84011  0.78668  0.65494  1.0000
  H   H128      1.0  0.88465  0.77068  0.72574  1.0000
  Fe  Fe9       1.0  0.33520  0.52198  0.01593  1.0000
  Fe  Fe10      1.0  0.83520  0.72802  0.51593  1.0000
  Fe  Fe11      1.0  0.33520  0.97802  0.51593  1.0000
  Fe  Fe12      1.0  0.16480  0.72802  0.98407  1.0000
  Fe  Fe13      1.0  0.66480  0.97802  0.98407  1.0000
  Fe  Fe14      1.0  0.16480  0.77198  0.48407  1.0000
  Fe  Fe15      1.0  0.66480  0.52198  0.48407  1.0000
  Fe  Fe16      1.0  0.83520  0.77198  0.01593  1.0000
