data_image0
_chemical_formula_structural       N2CHCHC2HCHCH2CH2CH2CHCHC2HCHN2CHCHC2HCHCH2CH2CH2CHCHC2HCHN2CHCHC2HCHCH2CH2CH2CHCHC2HCHN2CHCHC2HCHCH2CH2CH2CHCHC2HCHO8C3HC3HC4O8C3HC3HC4O2C3HC3HC4O14C3HC3HC4Zn8
_chemical_formula_sum              "N8 C92 H64 O32 Zn8"
_cell_length_a       18.4346
_cell_length_b       9.6448
_cell_length_c       15.7845
_cell_angle_alpha    90
_cell_angle_beta     108.594
_cell_angle_gamma    90

_space_group_name_H-M_alt    "P 1"
_space_group_IT_number       1

loop_
  _space_group_symop_operation_xyz
  'x, y, z'

loop_
  _atom_site_type_symbol
  _atom_site_label
  _atom_site_symmetry_multiplicity
  _atom_site_fract_x
  _atom_site_fract_y
  _atom_site_fract_z
  _atom_site_occupancy
  N   N1        1.0  0.97851  0.28510  0.36578  1.0000
  N   N2        1.0  0.51478  0.27140  0.61810  1.0000
  C   C1        1.0  0.00973  0.41180  0.38520  1.0000
  H   H1        1.0  0.99050  0.48370  0.34500  1.0000
  C   C2        1.0  0.06894  0.43950  0.46210  1.0000
  H   H2        1.0  0.08920  0.52850  0.47300  1.0000
  C   C3        1.0  0.09825  0.33460  0.52310  1.0000
  C   C4        1.0  0.06600  0.20420  0.50280  1.0000
  H   H3        1.0  0.08440  0.13090  0.54210  1.0000
  C   C5        1.0  0.00720  0.18250  0.42510  1.0000
  H   H4        1.0  0.98640  0.09400  0.41280  1.0000
  C   C6        1.0  0.16440  0.35970  0.60680  1.0000
  H   H5        1.0  0.16040  0.29750  0.65340  1.0000
  H   H6        1.0  0.16190  0.45400  0.62700  1.0000
  C   C7        1.0  0.24080  0.33720  0.59160  1.0000
  H   H7        1.0  0.24600  0.40300  0.54740  1.0000
  H   H8        1.0  0.24220  0.24460  0.56830  1.0000
  C   C8        1.0  0.30754  0.35490  0.67760  1.0000
  H   H9        1.0  0.30730  0.44860  0.70000  1.0000
  H   H10       1.0  0.30160  0.29130  0.72250  1.0000
  C   C9        1.0  0.48860  0.40130  0.61840  1.0000
  H   H11       1.0  0.51520  0.47340  0.60250  1.0000
  C   C10       1.0  0.42440  0.43310  0.64100  1.0000
  H   H12       1.0  0.40920  0.52490  0.64200  1.0000
  C   C11       1.0  0.38284  0.32780  0.66230  1.0000
  C   C12       1.0  0.41050  0.19450  0.66340  1.0000
  H   H13       1.0  0.38500  0.12080  0.67930  1.0000
  C   C13       1.0  0.47550  0.17030  0.64130  1.0000
  H   H14       1.0  0.49290  0.07960  0.64250  1.0000
  N   N3        1.0  0.02149  0.78510  0.13422  1.0000
  N   N4        1.0  0.48522  0.77140  0.88190  1.0000
  C   C14       1.0  0.99027  0.91180  0.11480  1.0000
  H   H15       1.0  0.00950  0.98370  0.15500  1.0000
  C   C15       1.0  0.93106  0.93950  0.03790  1.0000
  H   H16       1.0  0.91080  0.02850  0.02700  1.0000
  C   C16       1.0  0.90175  0.83460  0.97690  1.0000
  C   C17       1.0  0.93400  0.70420  0.99720  1.0000
  H   H17       1.0  0.91560  0.63090  0.95790  1.0000
  C   C18       1.0  0.99280  0.68250  0.07490  1.0000
  H   H18       1.0  0.01360  0.59400  0.08720  1.0000
  C   C19       1.0  0.83560  0.85970  0.89320  1.0000
  H   H19       1.0  0.83960  0.79750  0.84660  1.0000
  H   H20       1.0  0.83810  0.95400  0.87300  1.0000
  C   C20       1.0  0.75920  0.83720  0.90840  1.0000
  H   H21       1.0  0.75400  0.90300  0.95260  1.0000
  H   H22       1.0  0.75780  0.74460  0.93170  1.0000
  C   C21       1.0  0.69246  0.85490  0.82240  1.0000
  H   H23       1.0  0.69270  0.94860  0.80000  1.0000
  H   H24       1.0  0.69840  0.79130  0.77750  1.0000
  C   C22       1.0  0.51140  0.90130  0.88160  1.0000
  H   H25       1.0  0.48480  0.97340  0.89750  1.0000
  C   C23       1.0  0.57560  0.93310  0.85900  1.0000
  H   H26       1.0  0.59080  0.02490  0.85800  1.0000
  C   C24       1.0  0.61716  0.82780  0.83770  1.0000
  C   C25       1.0  0.58950  0.69450  0.83660  1.0000
  H   H27       1.0  0.61500  0.62080  0.82070  1.0000
  C   C26       1.0  0.52450  0.67030  0.85870  1.0000
  H   H28       1.0  0.50710  0.57960  0.85750  1.0000
  N   N5        1.0  0.02149  0.71490  0.63422  1.0000
  N   N6        1.0  0.48522  0.72860  0.38190  1.0000
  C   C27       1.0  0.99027  0.58820  0.61480  1.0000
  H   H29       1.0  0.00950  0.51630  0.65500  1.0000
  C   C28       1.0  0.93106  0.56050  0.53790  1.0000
  H   H30       1.0  0.91080  0.47150  0.52700  1.0000
  C   C29       1.0  0.90175  0.66540  0.47690  1.0000
  C   C30       1.0  0.93400  0.79580  0.49720  1.0000
  H   H31       1.0  0.91560  0.86910  0.45790  1.0000
  C   C31       1.0  0.99280  0.81750  0.57490  1.0000
  H   H32       1.0  0.01360  0.90600  0.58720  1.0000
  C   C32       1.0  0.83560  0.64030  0.39320  1.0000
  H   H33       1.0  0.83960  0.70250  0.34660  1.0000
  H   H34       1.0  0.83810  0.54600  0.37300  1.0000
  C   C33       1.0  0.75920  0.66280  0.40840  1.0000
  H   H35       1.0  0.75400  0.59700  0.45260  1.0000
  H   H36       1.0  0.75780  0.75540  0.43170  1.0000
  C   C34       1.0  0.69246  0.64510  0.32240  1.0000
  H   H37       1.0  0.69270  0.55140  0.30000  1.0000
  H   H38       1.0  0.69840  0.70870  0.27750  1.0000
  C   C35       1.0  0.51140  0.59870  0.38160  1.0000
  H   H39       1.0  0.48480  0.52660  0.39750  1.0000
  C   C36       1.0  0.57560  0.56690  0.35900  1.0000
  H   H40       1.0  0.59080  0.47510  0.35800  1.0000
  C   C37       1.0  0.61716  0.67220  0.33770  1.0000
  C   C38       1.0  0.58950  0.80550  0.33660  1.0000
  H   H41       1.0  0.61500  0.87920  0.32070  1.0000
  C   C39       1.0  0.52450  0.82970  0.35870  1.0000
  H   H42       1.0  0.50710  0.92040  0.35750  1.0000
  N   N7        1.0  0.97851  0.21490  0.86578  1.0000
  N   N8        1.0  0.51478  0.22860  0.11810  1.0000
  C   C40       1.0  0.00973  0.08820  0.88520  1.0000
  H   H43       1.0  0.99050  0.01630  0.84500  1.0000
  C   C41       1.0  0.06894  0.06050  0.96210  1.0000
  H   H44       1.0  0.08920  0.97150  0.97300  1.0000
  C   C42       1.0  0.09825  0.16540  0.02310  1.0000
  C   C43       1.0  0.06600  0.29580  0.00280  1.0000
  H   H45       1.0  0.08440  0.36910  0.04210  1.0000
  C   C44       1.0  0.00720  0.31750  0.92510  1.0000
  H   H46       1.0  0.98640  0.40600  0.91280  1.0000
  C   C45       1.0  0.16440  0.14030  0.10680  1.0000
  H   H47       1.0  0.16040  0.20250  0.15340  1.0000
  H   H48       1.0  0.16190  0.04600  0.12700  1.0000
  C   C46       1.0  0.24080  0.16280  0.09160  1.0000
  H   H49       1.0  0.24600  0.09700  0.04740  1.0000
  H   H50       1.0  0.24220  0.25540  0.06830  1.0000
  C   C47       1.0  0.30754  0.14510  0.17760  1.0000
  H   H51       1.0  0.30730  0.05140  0.20000  1.0000
  H   H52       1.0  0.30160  0.20870  0.22250  1.0000
  C   C48       1.0  0.48860  0.09870  0.11840  1.0000
  H   H53       1.0  0.51520  0.02660  0.10250  1.0000
  C   C49       1.0  0.42440  0.06690  0.14100  1.0000
  H   H54       1.0  0.40920  0.97510  0.14200  1.0000
  C   C50       1.0  0.38284  0.17220  0.16230  1.0000
  C   C51       1.0  0.41050  0.30550  0.16340  1.0000
  H   H55       1.0  0.38500  0.37920  0.17930  1.0000
  C   C52       1.0  0.47550  0.32970  0.14130  1.0000
  H   H56       1.0  0.49290  0.42040  0.14250  1.0000
  O   O1        1.0  0.84296  0.43540  0.21941  1.0000
  O   O2        1.0  0.83946  0.44280  0.07655  1.0000
  O   O3        1.0  0.67749  0.40400  0.08750  1.0000
  O   O4        1.0  0.58001  0.54240  0.07470  1.0000
  O   O5        1.0  0.65049  0.08440  0.05780  1.0000
  O   O6        1.0  0.68319  0.07960  0.20576  1.0000
  O   O7        1.0  0.83270  0.10850  0.16961  1.0000
  O   O8        1.0  0.91405  0.96880  0.26587  1.0000
  C   C53       1.0  0.78290  0.62570  0.13460  1.0000
  C   C54       1.0  0.70340  0.64430  0.10545  1.0000
  C   C55       1.0  0.67434  0.77820  0.10210  1.0000
  H   H57       1.0  0.62170  0.79150  0.07910  1.0000
  C   C56       1.0  0.72111  0.89210  0.13200  1.0000
  C   C57       1.0  0.80077  0.87230  0.16520  1.0000
  C   C58       1.0  0.82985  0.73970  0.16440  1.0000
  H   H58       1.0  0.88260  0.72690  0.18460  1.0000
  C   C59       1.0  0.82325  0.48810  0.14160  1.0000
  C   C60       1.0  0.64894  0.52380  0.08710  1.0000
  C   C61       1.0  0.68379  0.03060  0.13400  1.0000
  C   C62       1.0  0.85415  0.98960  0.20360  1.0000
  O   O9        1.0  0.15704  0.93540  0.28059  1.0000
  O   O10       1.0  0.16054  0.94280  0.42345  1.0000
  O   O11       1.0  0.32251  0.90400  0.41250  1.0000
  O   O12       1.0  0.41999  0.04240  0.42530  1.0000
  O   O13       1.0  0.34951  0.58440  0.44220  1.0000
  O   O14       1.0  0.31681  0.57960  0.29424  1.0000
  O   O15       1.0  0.16730  0.60850  0.33039  1.0000
  O   O16       1.0  0.08595  0.46880  0.23413  1.0000
  C   C63       1.0  0.21710  0.12570  0.36540  1.0000
  C   C64       1.0  0.29660  0.14430  0.39455  1.0000
  C   C65       1.0  0.32566  0.27820  0.39790  1.0000
  H   H59       1.0  0.37830  0.29150  0.42090  1.0000
  C   C66       1.0  0.27889  0.39210  0.36800  1.0000
  C   C67       1.0  0.19923  0.37230  0.33480  1.0000
  C   C68       1.0  0.17015  0.23970  0.33560  1.0000
  H   H60       1.0  0.11740  0.22690  0.31540  1.0000
  C   C69       1.0  0.17675  0.98810  0.35840  1.0000
  C   C70       1.0  0.35106  0.02380  0.41290  1.0000
  C   C71       1.0  0.31621  0.53060  0.36600  1.0000
  C   C72       1.0  0.14585  0.48960  0.29640  1.0000
  O   O17       1.0  0.16730  0.89150  0.83039  1.0000
  O   O18       1.0  0.08595  0.03120  0.73413  1.0000
  C   C73       1.0  0.21710  0.37430  0.86540  1.0000
  C   C74       1.0  0.29660  0.35570  0.89455  1.0000
  C   C75       1.0  0.32566  0.22180  0.89790  1.0000
  H   H61       1.0  0.37830  0.20850  0.92090  1.0000
  C   C76       1.0  0.27889  0.10790  0.86800  1.0000
  C   C77       1.0  0.19923  0.12770  0.83480  1.0000
  C   C78       1.0  0.17015  0.26030  0.83560  1.0000
  H   H62       1.0  0.11740  0.27310  0.81540  1.0000
  C   C79       1.0  0.17675  0.51190  0.85840  1.0000
  C   C80       1.0  0.35106  0.47620  0.91290  1.0000
  C   C81       1.0  0.31621  0.96940  0.86600  1.0000
  C   C82       1.0  0.14585  0.01040  0.79640  1.0000
  O   O19       1.0  0.15704  0.56460  0.78059  1.0000
  O   O20       1.0  0.16054  0.55720  0.92345  1.0000
  O   O21       1.0  0.32251  0.59600  0.91250  1.0000
  O   O22       1.0  0.41999  0.45760  0.92530  1.0000
  O   O23       1.0  0.34951  0.91560  0.94220  1.0000
  O   O24       1.0  0.31681  0.92040  0.79424  1.0000
  O   O25       1.0  0.84296  0.06460  0.71941  1.0000
  O   O26       1.0  0.83946  0.05720  0.57655  1.0000
  O   O27       1.0  0.67749  0.09600  0.58750  1.0000
  O   O28       1.0  0.58001  0.95760  0.57470  1.0000
  O   O29       1.0  0.65049  0.41560  0.55780  1.0000
  O   O30       1.0  0.68319  0.42040  0.70576  1.0000
  O   O31       1.0  0.83270  0.39150  0.66961  1.0000
  O   O32       1.0  0.91405  0.53120  0.76587  1.0000
  C   C83       1.0  0.78290  0.87430  0.63460  1.0000
  C   C84       1.0  0.70340  0.85570  0.60545  1.0000
  C   C85       1.0  0.67434  0.72180  0.60210  1.0000
  H   H63       1.0  0.62170  0.70850  0.57910  1.0000
  C   C86       1.0  0.72111  0.60790  0.63200  1.0000
  C   C87       1.0  0.80077  0.62770  0.66520  1.0000
  C   C88       1.0  0.82985  0.76030  0.66440  1.0000
  H   H64       1.0  0.88260  0.77310  0.68460  1.0000
  C   C89       1.0  0.82325  0.01190  0.64160  1.0000
  C   C90       1.0  0.64894  0.97620  0.58710  1.0000
  C   C91       1.0  0.68379  0.46940  0.63400  1.0000
  C   C92       1.0  0.85415  0.51040  0.70360  1.0000
  Zn  Zn1       1.0  0.89214  0.25364  0.25057  1.0000
  Zn  Zn2       1.0  0.59909  0.26132  0.06401  1.0000
  Zn  Zn3       1.0  0.89214  0.24636  0.75057  1.0000
  Zn  Zn4       1.0  0.59909  0.23868  0.56401  1.0000
  Zn  Zn5       1.0  0.10786  0.74636  0.74943  1.0000
  Zn  Zn6       1.0  0.40091  0.73868  0.93599  1.0000
  Zn  Zn7       1.0  0.10786  0.75364  0.24943  1.0000
  Zn  Zn8       1.0  0.40091  0.76132  0.43599  1.0000
