data_image0
_chemical_formula_structural       C2HCH2CH2CH2CH2CH2NHO5PC2HCH2CH2CH2CH2CH2NHO5PC2HCH2CH2CH2CH2CH2NHO5P2C2HCH2CH2CH2CH2CH2NHO5Ca4C2HCH2CH2CH2CH2CH2NHO5PC2HCH2CH2CH2CH2CH2NHO5PC2HCH2CH2CH2CH2CH2NHO5P2C2HCH2CH2CH2CH2CH2NHO5Ca4
_chemical_formula_sum              "C56 H96 N8 O40 P8 Ca8"
_cell_length_a       13.6202
_cell_length_b       9.5015
_cell_length_c       21.2601
_cell_angle_alpha    90
_cell_angle_beta     90
_cell_angle_gamma    90

_space_group_name_H-M_alt    "P 1"
_space_group_IT_number       1

loop_
  _space_group_symop_operation_xyz
  'x, y, z'

loop_
  _atom_site_type_symbol
  _atom_site_label
  _atom_site_symmetry_multiplicity
  _atom_site_fract_x
  _atom_site_fract_y
  _atom_site_fract_z
  _atom_site_occupancy
  C   C1        1.0  0.32040  0.92190  0.43150  1.0000
  C   C2        1.0  0.30625  0.77600  0.40480  1.0000
  H   H1        1.0  0.34470  0.71050  0.43050  1.0000
  C   C3        1.0  0.34205  0.76340  0.33700  1.0000
  H   H2        1.0  0.41140  0.78620  0.33500  1.0000
  H   H3        1.0  0.30685  0.83000  0.31080  1.0000
  C   C4        1.0  0.32560  0.61440  0.31230  1.0000
  H   H4        1.0  0.34605  0.60940  0.26870  1.0000
  H   H5        1.0  0.36555  0.54890  0.33620  1.0000
  C   C5        1.0  0.19890  0.73210  0.40900  1.0000
  H   H6        1.0  0.17710  0.73640  0.45240  1.0000
  H   H7        1.0  0.15880  0.79610  0.38440  1.0000
  C   C6        1.0  0.22035  0.57310  0.31740  1.0000
  H   H8        1.0  0.21195  0.47740  0.30250  1.0000
  H   H9        1.0  0.18065  0.63460  0.29130  1.0000
  C   C7        1.0  0.08205  0.53150  0.39170  1.0000
  H   H10       1.0  0.04370  0.55880  0.35520  1.0000
  H   H11       1.0  0.05270  0.57450  0.42860  1.0000
  N   N1        1.0  0.18705  0.58320  0.38420  1.0000
  H   H12       1.0  0.22635  0.52640  0.40770  1.0000
  O   O1        1.0  0.48215  0.30420  0.42935  1.0000
  O   O2        1.0  0.16235  0.31260  0.44639  1.0000
  O   O3        1.0  0.09865  0.27370  0.33600  1.0000
  O   O4        1.0  0.24830  0.98770  0.45447  1.0000
  O   O5        1.0  0.40490  0.97640  0.42919  1.0000
  P   P1        1.0  0.08010  0.33803  0.40007  1.0000
  C   C8        1.0  0.42960  0.07810  0.93150  1.0000
  C   C9        1.0  0.44375  0.22400  0.90480  1.0000
  H   H13       1.0  0.40530  0.28950  0.93050  1.0000
  C   C10       1.0  0.40795  0.23660  0.83700  1.0000
  H   H14       1.0  0.33860  0.21380  0.83500  1.0000
  H   H15       1.0  0.44315  0.17000  0.81080  1.0000
  C   C11       1.0  0.42440  0.38560  0.81230  1.0000
  H   H16       1.0  0.40395  0.39060  0.76870  1.0000
  H   H17       1.0  0.38445  0.45110  0.83620  1.0000
  C   C12       1.0  0.05110  0.26790  0.90900  1.0000
  H   H18       1.0  0.07290  0.26360  0.95240  1.0000
  H   H19       1.0  0.09120  0.20390  0.88440  1.0000
  C   C13       1.0  0.02965  0.42690  0.81740  1.0000
  H   H20       1.0  0.03805  0.52260  0.80250  1.0000
  H   H21       1.0  0.06935  0.36540  0.79130  1.0000
  C   C14       1.0  0.16795  0.46850  0.89170  1.0000
  H   H22       1.0  0.20630  0.44120  0.85520  1.0000
  H   H23       1.0  0.19730  0.42550  0.92860  1.0000
  N   N2        1.0  0.06295  0.41680  0.88420  1.0000
  H   H24       1.0  0.02365  0.47360  0.90770  1.0000
  O   O6        1.0  0.26785  0.69580  0.92935  1.0000
  O   O7        1.0  0.08765  0.68740  0.94639  1.0000
  O   O8        1.0  0.15135  0.72630  0.83600  1.0000
  O   O9        1.0  0.00170  0.01230  0.95447  1.0000
  O   O10       1.0  0.34510  0.02360  0.92919  1.0000
  P   P2        1.0  0.16990  0.66197  0.90007  1.0000
  C   C15       1.0  0.17960  0.42190  0.06850  1.0000
  C   C16       1.0  0.19375  0.27600  0.09520  1.0000
  H   H25       1.0  0.15530  0.21050  0.06950  1.0000
  C   C17       1.0  0.15795  0.26340  0.16300  1.0000
  H   H26       1.0  0.08860  0.28620  0.16500  1.0000
  H   H27       1.0  0.19315  0.33000  0.18920  1.0000
  C   C18       1.0  0.17440  0.11440  0.18770  1.0000
  H   H28       1.0  0.15395  0.10940  0.23130  1.0000
  H   H29       1.0  0.13445  0.04890  0.16380  1.0000
  C   C19       1.0  0.30110  0.23210  0.09100  1.0000
  H   H30       1.0  0.32290  0.23640  0.04760  1.0000
  H   H31       1.0  0.34120  0.29610  0.11560  1.0000
  C   C20       1.0  0.27965  0.07310  0.18260  1.0000
  H   H32       1.0  0.28805  0.97740  0.19750  1.0000
  H   H33       1.0  0.31935  0.13460  0.20870  1.0000
  C   C21       1.0  0.41795  0.03150  0.10830  1.0000
  H   H34       1.0  0.45630  0.05880  0.14480  1.0000
  H   H35       1.0  0.44730  0.07450  0.07140  1.0000
  N   N3        1.0  0.31295  0.08320  0.11580  1.0000
  H   H36       1.0  0.27365  0.02640  0.09230  1.0000
  O   O11       1.0  0.01785  0.80420  0.07065  1.0000
  O   O12       1.0  0.33765  0.81260  0.05361  1.0000
  O   O13       1.0  0.40135  0.77370  0.16400  1.0000
  O   O14       1.0  0.25170  0.48770  0.04553  1.0000
  O   O15       1.0  0.09510  0.47640  0.07081  1.0000
  P   P3        1.0  0.41990  0.83803  0.09993  1.0000
  P   P4        1.0  0.33010  0.16197  0.59993  1.0000
  C   C22       1.0  0.07040  0.57810  0.56850  1.0000
  C   C23       1.0  0.05625  0.72400  0.59520  1.0000
  H   H37       1.0  0.09470  0.78950  0.56950  1.0000
  C   C24       1.0  0.09205  0.73660  0.66300  1.0000
  H   H38       1.0  0.16140  0.71380  0.66500  1.0000
  H   H39       1.0  0.05685  0.67000  0.68920  1.0000
  C   C25       1.0  0.07560  0.88560  0.68770  1.0000
  H   H40       1.0  0.09605  0.89060  0.73130  1.0000
  H   H41       1.0  0.11555  0.95110  0.66380  1.0000
  C   C26       1.0  0.44890  0.76790  0.59100  1.0000
  H   H42       1.0  0.42710  0.76360  0.54760  1.0000
  H   H43       1.0  0.40880  0.70390  0.61560  1.0000
  C   C27       1.0  0.47035  0.92690  0.68260  1.0000
  H   H44       1.0  0.46195  0.02260  0.69750  1.0000
  H   H45       1.0  0.43065  0.86540  0.70870  1.0000
  C   C28       1.0  0.33205  0.96850  0.60830  1.0000
  H   H46       1.0  0.29370  0.94120  0.64480  1.0000
  H   H47       1.0  0.30270  0.92550  0.57140  1.0000
  N   N4        1.0  0.43705  0.91680  0.61580  1.0000
  H   H48       1.0  0.47635  0.97360  0.59230  1.0000
  O   O16       1.0  0.23215  0.19580  0.57065  1.0000
  O   O17       1.0  0.41235  0.18740  0.55361  1.0000
  O   O18       1.0  0.34865  0.22630  0.66400  1.0000
  O   O19       1.0  0.49830  0.51230  0.54553  1.0000
  O   O20       1.0  0.15490  0.52360  0.57081  1.0000
  Ca  Ca1       1.0  0.32635  0.22604  0.45601  1.0000
  Ca  Ca2       1.0  0.42365  0.77396  0.95601  1.0000
  Ca  Ca3       1.0  0.17365  0.72604  0.04399  1.0000
  Ca  Ca4       1.0  0.07635  0.27396  0.54399  1.0000
  C   C29       1.0  0.82040  0.92190  0.43150  1.0000
  C   C30       1.0  0.80625  0.77600  0.40480  1.0000
  H   H49       1.0  0.84470  0.71050  0.43050  1.0000
  C   C31       1.0  0.84205  0.76340  0.33700  1.0000
  H   H50       1.0  0.91140  0.78620  0.33500  1.0000
  H   H51       1.0  0.80685  0.83000  0.31080  1.0000
  C   C32       1.0  0.82560  0.61440  0.31230  1.0000
  H   H52       1.0  0.84605  0.60940  0.26870  1.0000
  H   H53       1.0  0.86555  0.54890  0.33620  1.0000
  C   C33       1.0  0.69890  0.73210  0.40900  1.0000
  H   H54       1.0  0.67710  0.73640  0.45240  1.0000
  H   H55       1.0  0.65880  0.79610  0.38440  1.0000
  C   C34       1.0  0.72035  0.57310  0.31740  1.0000
  H   H56       1.0  0.71195  0.47740  0.30250  1.0000
  H   H57       1.0  0.68065  0.63460  0.29130  1.0000
  C   C35       1.0  0.58205  0.53150  0.39170  1.0000
  H   H58       1.0  0.54370  0.55880  0.35520  1.0000
  H   H59       1.0  0.55270  0.57450  0.42860  1.0000
  N   N5        1.0  0.68705  0.58320  0.38420  1.0000
  H   H60       1.0  0.72635  0.52640  0.40770  1.0000
  O   O21       1.0  0.98215  0.30420  0.42935  1.0000
  O   O22       1.0  0.66235  0.31260  0.44639  1.0000
  O   O23       1.0  0.59865  0.27370  0.33600  1.0000
  O   O24       1.0  0.74830  0.98770  0.45447  1.0000
  O   O25       1.0  0.90490  0.97640  0.42919  1.0000
  P   P5        1.0  0.58010  0.33803  0.40007  1.0000
  C   C36       1.0  0.92960  0.07810  0.93150  1.0000
  C   C37       1.0  0.94375  0.22400  0.90480  1.0000
  H   H61       1.0  0.90530  0.28950  0.93050  1.0000
  C   C38       1.0  0.90795  0.23660  0.83700  1.0000
  H   H62       1.0  0.83860  0.21380  0.83500  1.0000
  H   H63       1.0  0.94315  0.17000  0.81080  1.0000
  C   C39       1.0  0.92440  0.38560  0.81230  1.0000
  H   H64       1.0  0.90395  0.39060  0.76870  1.0000
  H   H65       1.0  0.88445  0.45110  0.83620  1.0000
  C   C40       1.0  0.55110  0.26790  0.90900  1.0000
  H   H66       1.0  0.57290  0.26360  0.95240  1.0000
  H   H67       1.0  0.59120  0.20390  0.88440  1.0000
  C   C41       1.0  0.52965  0.42690  0.81740  1.0000
  H   H68       1.0  0.53805  0.52260  0.80250  1.0000
  H   H69       1.0  0.56935  0.36540  0.79130  1.0000
  C   C42       1.0  0.66795  0.46850  0.89170  1.0000
  H   H70       1.0  0.70630  0.44120  0.85520  1.0000
  H   H71       1.0  0.69730  0.42550  0.92860  1.0000
  N   N6        1.0  0.56295  0.41680  0.88420  1.0000
  H   H72       1.0  0.52365  0.47360  0.90770  1.0000
  O   O26       1.0  0.76785  0.69580  0.92935  1.0000
  O   O27       1.0  0.58765  0.68740  0.94639  1.0000
  O   O28       1.0  0.65135  0.72630  0.83600  1.0000
  O   O29       1.0  0.50170  0.01230  0.95447  1.0000
  O   O30       1.0  0.84510  0.02360  0.92919  1.0000
  P   P6        1.0  0.66990  0.66197  0.90007  1.0000
  C   C43       1.0  0.67960  0.42190  0.06850  1.0000
  C   C44       1.0  0.69375  0.27600  0.09520  1.0000
  H   H73       1.0  0.65530  0.21050  0.06950  1.0000
  C   C45       1.0  0.65795  0.26340  0.16300  1.0000
  H   H74       1.0  0.58860  0.28620  0.16500  1.0000
  H   H75       1.0  0.69315  0.33000  0.18920  1.0000
  C   C46       1.0  0.67440  0.11440  0.18770  1.0000
  H   H76       1.0  0.65395  0.10940  0.23130  1.0000
  H   H77       1.0  0.63445  0.04890  0.16380  1.0000
  C   C47       1.0  0.80110  0.23210  0.09100  1.0000
  H   H78       1.0  0.82290  0.23640  0.04760  1.0000
  H   H79       1.0  0.84120  0.29610  0.11560  1.0000
  C   C48       1.0  0.77965  0.07310  0.18260  1.0000
  H   H80       1.0  0.78805  0.97740  0.19750  1.0000
  H   H81       1.0  0.81935  0.13460  0.20870  1.0000
  C   C49       1.0  0.91795  0.03150  0.10830  1.0000
  H   H82       1.0  0.95630  0.05880  0.14480  1.0000
  H   H83       1.0  0.94730  0.07450  0.07140  1.0000
  N   N7        1.0  0.81295  0.08320  0.11580  1.0000
  H   H84       1.0  0.77365  0.02640  0.09230  1.0000
  O   O31       1.0  0.51785  0.80420  0.07065  1.0000
  O   O32       1.0  0.83765  0.81260  0.05361  1.0000
  O   O33       1.0  0.90135  0.77370  0.16400  1.0000
  O   O34       1.0  0.75170  0.48770  0.04553  1.0000
  O   O35       1.0  0.59510  0.47640  0.07081  1.0000
  P   P7        1.0  0.91990  0.83803  0.09993  1.0000
  P   P8        1.0  0.83010  0.16197  0.59993  1.0000
  C   C50       1.0  0.57040  0.57810  0.56850  1.0000
  C   C51       1.0  0.55625  0.72400  0.59520  1.0000
  H   H85       1.0  0.59470  0.78950  0.56950  1.0000
  C   C52       1.0  0.59205  0.73660  0.66300  1.0000
  H   H86       1.0  0.66140  0.71380  0.66500  1.0000
  H   H87       1.0  0.55685  0.67000  0.68920  1.0000
  C   C53       1.0  0.57560  0.88560  0.68770  1.0000
  H   H88       1.0  0.59605  0.89060  0.73130  1.0000
  H   H89       1.0  0.61555  0.95110  0.66380  1.0000
  C   C54       1.0  0.94890  0.76790  0.59100  1.0000
  H   H90       1.0  0.92710  0.76360  0.54760  1.0000
  H   H91       1.0  0.90880  0.70390  0.61560  1.0000
  C   C55       1.0  0.97035  0.92690  0.68260  1.0000
  H   H92       1.0  0.96195  0.02260  0.69750  1.0000
  H   H93       1.0  0.93065  0.86540  0.70870  1.0000
  C   C56       1.0  0.83205  0.96850  0.60830  1.0000
  H   H94       1.0  0.79370  0.94120  0.64480  1.0000
  H   H95       1.0  0.80270  0.92550  0.57140  1.0000
  N   N8        1.0  0.93705  0.91680  0.61580  1.0000
  H   H96       1.0  0.97635  0.97360  0.59230  1.0000
  O   O36       1.0  0.73215  0.19580  0.57065  1.0000
  O   O37       1.0  0.91235  0.18740  0.55361  1.0000
  O   O38       1.0  0.84865  0.22630  0.66400  1.0000
  O   O39       1.0  0.99830  0.51230  0.54553  1.0000
  O   O40       1.0  0.65490  0.52360  0.57081  1.0000
  Ca  Ca5       1.0  0.82635  0.22604  0.45601  1.0000
  Ca  Ca6       1.0  0.92365  0.77396  0.95601  1.0000
  Ca  Ca7       1.0  0.67365  0.72604  0.04399  1.0000
  Ca  Ca8       1.0  0.57635  0.27396  0.54399  1.0000
