data_image0
_chemical_formula_structural       PCHOHCHOHCH2ONHCHCHCH3CH2CH2CH2CH2PO3NHCHCH2P2O6NHNHCH2CH2CH2CH2CH2CH2CHCH2CHCH2CH2CH4CH2CH2CH2CH2CH2CHCH2CHCH2CH2CH2P2O6NHNHC2O2CH3O2C2H3O2CH3CO2C2H3La4
_chemical_formula_sum              "P6 C44 H84 O26 N6 La4"
_cell_length_a       9.6056
_cell_length_b       15.424
_cell_length_c       16.78
_cell_angle_alpha    95.434
_cell_angle_beta     106.266
_cell_angle_gamma    91.765

_space_group_name_H-M_alt    "P 1"
_space_group_IT_number       1

loop_
  _space_group_symop_operation_xyz
  'x, y, z'

loop_
  _atom_site_type_symbol
  _atom_site_label
  _atom_site_symmetry_multiplicity
  _atom_site_fract_x
  _atom_site_fract_y
  _atom_site_fract_z
  _atom_site_occupancy
  P   P1        1.0  0.49612  0.40347  0.06409  1.0000
  C   C1        1.0  0.43430  0.88320  0.01320  1.0000
  H   H1        1.0  0.34925  0.89790  0.03086  1.0000
  O   O1        1.0  0.52130  0.48270  0.12810  1.0000
  H   H2        1.0  0.51256  0.87569  0.06270  1.0000
  C   C2        1.0  0.56540  0.84590  0.87860  1.0000
  H   H3        1.0  0.48341  0.85159  0.83051  1.0000
  O   O2        1.0  0.61280  0.39190  0.02090  1.0000
  H   H4        1.0  0.64781  0.83052  0.85860  1.0000
  C   C3        1.0  0.50360  0.68840  0.87490  1.0000
  H   H5        1.0  0.41071  0.68686  0.83265  1.0000
  H   H6        1.0  0.57826  0.68170  0.84640  1.0000
  O   O3        1.0  0.34400  0.40300  0.00630  1.0000
  N   N1        1.0  0.47050  0.22470  0.07410  1.0000
  H   H7        1.0  0.38725  0.22812  0.02512  1.0000
  C   C4        1.0  0.52190  0.04220  0.03000  1.0000
  H   H8        1.0  0.60610  0.03116  0.07592  1.0000
  C   C5        1.0  0.40130  0.79860  0.95630  1.0000
  H   H9        1.0  0.31807  0.80448  0.90892  1.0000
  C   C6        1.0  0.39920  0.06890  0.06730  1.0000
  H   H10       1.0  0.31155  0.07330  0.02226  1.0000
  H   H11       1.0  0.38007  0.02385  0.10008  1.0000
  H   H12       1.0  0.37694  0.75229  0.98624  1.0000
  C   C7        1.0  0.56570  0.11680  0.98680  1.0000
  H   H13       1.0  0.65075  0.10210  0.96913  1.0000
  H   H14       1.0  0.48744  0.12431  0.93730  1.0000
  C   C8        1.0  0.43460  0.15410  0.12140  1.0000
  H   H15       1.0  0.35219  0.16948  0.14140  1.0000
  H   H16       1.0  0.51659  0.14841  0.16949  1.0000
  C   C9        1.0  0.49640  0.31160  0.12510  1.0000
  H   H17       1.0  0.58929  0.31314  0.16735  1.0000
  H   H18       1.0  0.42174  0.31830  0.15360  1.0000
  C   C10       1.0  0.59870  0.20140  0.04370  1.0000
  H   H19       1.0  0.68193  0.19552  0.09108  1.0000
  H   H20       1.0  0.62306  0.24771  0.01376  1.0000
  P   P2        1.0  0.50388  0.59653  0.93591  1.0000
  O   O4        1.0  0.47870  0.51730  0.87190  1.0000
  O   O5        1.0  0.38720  0.60810  0.97910  1.0000
  O   O6        1.0  0.65600  0.59700  0.99370  1.0000
  N   N2        1.0  0.52950  0.77530  0.92590  1.0000
  H   H21       1.0  0.61275  0.77188  0.97489  1.0000
  C   C11       1.0  0.47810  0.95780  0.97000  1.0000
  H   H22       1.0  0.39390  0.96884  0.92407  1.0000
  C   C12       1.0  0.60080  0.93110  0.93270  1.0000
  H   H23       1.0  0.68845  0.92670  0.97774  1.0000
  H   H24       1.0  0.61993  0.97615  0.89992  1.0000
  P   P3        1.0  0.02392  0.58141  0.92497  1.0000
  P   P4        1.0  0.22042  0.59295  0.25883  1.0000
  O   O7        1.0  0.07390  0.64410  0.00410  1.0000
  O   O8        1.0  0.35190  0.55400  0.24050  1.0000
  O   O9        1.0  0.13940  0.53460  0.29940  1.0000
  O   O10       1.0  0.12790  0.62450  0.17820  1.0000
  O   O11       1.0  0.86170  0.56400  0.89280  1.0000
  O   O12       1.0  0.10660  0.50050  0.94150  1.0000
  N   N3        1.0  0.95210  0.63590  0.76670  1.0000
  H   H25       1.0  0.89326  0.58059  0.75336  1.0000
  N   N4        1.0  0.42720  0.68820  0.39040  1.0000
  H   H26       1.0  0.49139  0.65641  0.36327  1.0000
  C   C13       1.0  0.07910  0.62740  0.84020  1.0000
  H   H27       1.0  0.12831  0.68435  0.86076  1.0000
  H   H28       1.0  0.14707  0.58995  0.82291  1.0000
  C   C14       1.0  0.00200  0.65290  0.69160  1.0000
  H   H29       1.0  0.06380  0.60751  0.68040  1.0000
  H   H30       1.0  0.05740  0.70849  0.70226  1.0000
  C   C15       1.0  0.85890  0.70650  0.78420  1.0000
  H   H31       1.0  0.91175  0.76269  0.79183  1.0000
  H   H32       1.0  0.83371  0.69845  0.83519  1.0000
  C   C16       1.0  0.72320  0.70450  0.71290  1.0000
  H   H33       1.0  0.66106  0.74907  0.72540  1.0000
  H   H34       1.0  0.67059  0.64825  0.70525  1.0000
  C   C17       1.0  0.86780  0.65400  0.61630  1.0000
  H   H35       1.0  0.89880  0.66738  0.56831  1.0000
  H   H36       1.0  0.81847  0.59635  0.60311  1.0000
  C   C18       1.0  0.28550  0.69570  0.32550  1.0000
  H   H37       1.0  0.29752  0.74069  0.29086  1.0000
  H   H38       1.0  0.21306  0.71344  0.35302  1.0000
  C   C19       1.0  0.76120  0.72070  0.63190  1.0000
  H   H39       1.0  0.81088  0.77872  0.64072  1.0000
  C   C20       1.0  0.40720  0.63830  0.45810  1.0000
  H   H40       1.0  0.36498  0.58035  0.43460  1.0000
  H   H41       1.0  0.34041  0.66726  0.48423  1.0000
  C   C21       1.0  0.62190  0.72070  0.55880  1.0000
  H   H42       1.0  0.55195  0.75212  0.58156  1.0000
  C   C22       1.0  0.49840  0.77750  0.42440  1.0000
  H   H43       1.0  0.51356  0.80786  0.37921  1.0000
  H   H44       1.0  0.43547  0.81109  0.45003  1.0000
  C   C23       1.0  0.54960  0.63110  0.52290  1.0000
  H   H45       1.0  0.61354  0.59780  0.49785  1.0000
  H   H46       1.0  0.53304  0.60030  0.56749  1.0000
  C   C24       1.0  0.64090  0.77020  0.48770  1.0000
  H   H47       1.0  0.68471  0.82811  0.51006  1.0000
  H   H48       1.0  0.70588  0.73998  0.46106  1.0000
  H   H49       1.0  0.87169  0.31565  0.13923  1.0000
  H   H50       1.0  0.85293  0.41005  0.17709  1.0000
  C   C25       1.0  0.99800  0.34710  0.30840  1.0000
  H   H51       1.0  0.93620  0.39249  0.31960  1.0000
  H   H52       1.0  0.94260  0.29151  0.29774  1.0000
  C   C26       1.0  0.14110  0.29350  0.21580  1.0000
  H   H53       1.0  0.08825  0.23731  0.20817  1.0000
  H   H54       1.0  0.16629  0.30155  0.16481  1.0000
  C   C27       1.0  0.27680  0.29550  0.28710  1.0000
  H   H55       1.0  0.33894  0.25093  0.27460  1.0000
  H   H56       1.0  0.32941  0.35175  0.29475  1.0000
  C   C28       1.0  0.13220  0.34600  0.38370  1.0000
  H   H57       1.0  0.10120  0.33262  0.43169  1.0000
  H   H58       1.0  0.18153  0.40365  0.39689  1.0000
  C   C29       1.0  0.71450  0.30430  0.67450  1.0000
  H   H59       1.0  0.70248  0.25931  0.70914  1.0000
  H   H60       1.0  0.78694  0.28656  0.64698  1.0000
  C   C30       1.0  0.23880  0.27930  0.36810  1.0000
  H   H61       1.0  0.18913  0.22128  0.35928  1.0000
  C   C31       1.0  0.59280  0.36170  0.54190  1.0000
  H   H62       1.0  0.63502  0.41965  0.56540  1.0000
  H   H63       1.0  0.65959  0.33275  0.51577  1.0000
  C   C32       1.0  0.37810  0.27930  0.44120  1.0000
  H   H64       1.0  0.44805  0.24788  0.41844  1.0000
  C   C33       1.0  0.50160  0.22250  0.57560  1.0000
  H   H65       1.0  0.48644  0.19214  0.62079  1.0000
  H   H66       1.0  0.56453  0.18891  0.54997  1.0000
  C   C34       1.0  0.45040  0.36890  0.47710  1.0000
  H   H67       1.0  0.38646  0.40220  0.50215  1.0000
  H   H68       1.0  0.46696  0.39970  0.43251  1.0000
  C   C35       1.0  0.35910  0.22980  0.51230  1.0000
  H   H69       1.0  0.31529  0.17189  0.48994  1.0000
  H   H70       1.0  0.29412  0.26002  0.53894  1.0000
  P   P5        1.0  0.97608  0.41859  0.07503  1.0000
  P   P6        1.0  0.77958  0.40705  0.74117  1.0000
  O   O13       1.0  0.92610  0.35590  0.99590  1.0000
  O   O14       1.0  0.64810  0.44600  0.75950  1.0000
  O   O15       1.0  0.86060  0.46540  0.70060  1.0000
  O   O16       1.0  0.87210  0.37550  0.82180  1.0000
  O   O17       1.0  0.13830  0.43600  0.10720  1.0000
  O   O18       1.0  0.89340  0.49950  0.05850  1.0000
  N   N5        1.0  0.04790  0.36410  0.23330  1.0000
  H   H71       1.0  0.10674  0.41941  0.24664  1.0000
  N   N6        1.0  0.57280  0.31180  0.60960  1.0000
  H   H72       1.0  0.50861  0.34359  0.63673  1.0000
  C   C36       1.0  0.92090  0.37260  0.15980  1.0000
  C   C37       1.0  0.94580  0.81680  0.01930  1.0000
  O   O19       1.0  0.00790  0.81230  0.09600  1.0000
  O   O20       1.0  0.83270  0.76800  0.98200  1.0000
  C   C38       1.0  0.00590  0.87680  0.97180  1.0000
  H   H73       1.0  0.06534  0.92287  0.00974  1.0000
  H   H74       1.0  0.92765  0.90130  0.93294  1.0000
  H   H75       1.0  0.06356  0.84527  0.94192  1.0000
  O   O21       1.0  0.89210  0.75810  0.23080  1.0000
  O   O22       1.0  0.69310  0.76230  0.12520  1.0000
  C   C39       1.0  0.76960  0.78860  0.19920  1.0000
  C   C40       1.0  0.71730  0.85910  0.25010  1.0000
  H   H76       1.0  0.61313  0.85757  0.23206  1.0000
  H   H77       1.0  0.75616  0.91490  0.24285  1.0000
  H   H78       1.0  0.74935  0.84969  0.30805  1.0000
  O   O23       1.0  0.99210  0.18770  0.90400  1.0000
  O   O24       1.0  0.16730  0.23200  0.01800  1.0000
  C   C41       1.0  0.99410  0.12320  0.02820  1.0000
  H   H79       1.0  0.93466  0.07713  0.99026  1.0000
  H   H80       1.0  0.07235  0.09870  0.06706  1.0000
  H   H81       1.0  0.93644  0.15473  0.05808  1.0000
  C   C42       1.0  0.05420  0.18320  0.98070  1.0000
  O   O25       1.0  0.10790  0.24190  0.76920  1.0000
  O   O26       1.0  0.30690  0.23770  0.87480  1.0000
  C   C43       1.0  0.23040  0.21140  0.80080  1.0000
  C   C44       1.0  0.28270  0.14090  0.74990  1.0000
  H   H82       1.0  0.38687  0.14243  0.76794  1.0000
  H   H83       1.0  0.24384  0.08511  0.75715  1.0000
  H   H84       1.0  0.25065  0.15031  0.69194  1.0000
  La  La1       1.0  0.28704  0.55640  0.08450  1.0000
  La  La2       1.0  0.88588  0.65801  0.09422  1.0000
  La  La3       1.0  0.71296  0.44360  0.91550  1.0000
  La  La4       1.0  0.11412  0.34199  0.90578  1.0000
