data_image0
_chemical_formula_structural       NC2HONC2HONC2HONC2HOC3OC3ONC2HONC2HONC2HONC2HOC3OC3OZr2NC2HONC2HONC2HONC2HOC3OC3ONC2HONC2HONC2HONC2HOC3OC3OZr2
_chemical_formula_sum              "N16 C56 H16 O24 Zr4"
_cell_length_a       15.6152
_cell_length_b       15.6152
_cell_length_c       14.9926
_cell_angle_alpha    90
_cell_angle_beta     90
_cell_angle_gamma    90

_space_group_name_H-M_alt    "P 1"
_space_group_IT_number       1

loop_
  _space_group_symop_operation_xyz
  'x, y, z'

loop_
  _atom_site_type_symbol
  _atom_site_label
  _atom_site_symmetry_multiplicity
  _atom_site_fract_x
  _atom_site_fract_y
  _atom_site_fract_z
  _atom_site_occupancy
  N   N1        1.0  0.45773  0.00000  0.07625  1.0000
  C   C1        1.0  0.27682  0.00000  0.08029  1.0000
  C   C2        1.0  0.18780  0.00000  0.08029  1.0000
  H   H1        1.0  0.30660  0.00000  0.13401  1.0000
  O   O1        1.0  0.14618  0.00000  0.15538  1.0000
  N   N2        1.0  0.54227  0.00000  0.07625  1.0000
  C   C3        1.0  0.72318  0.00000  0.08029  1.0000
  C   C4        1.0  0.81220  0.00000  0.08029  1.0000
  H   H2        1.0  0.69340  0.00000  0.13401  1.0000
  O   O2        1.0  0.85382  0.00000  0.15538  1.0000
  N   N3        1.0  0.54227  0.00000  0.42375  1.0000
  C   C5        1.0  0.72318  0.00000  0.41971  1.0000
  C   C6        1.0  0.81220  0.00000  0.41971  1.0000
  H   H3        1.0  0.69340  0.00000  0.36599  1.0000
  O   O3        1.0  0.85382  0.00000  0.34462  1.0000
  N   N4        1.0  0.45773  0.00000  0.42375  1.0000
  C   C7        1.0  0.27682  0.00000  0.41971  1.0000
  C   C8        1.0  0.18780  0.00000  0.41971  1.0000
  H   H4        1.0  0.30660  0.00000  0.36599  1.0000
  O   O4        1.0  0.14618  0.00000  0.34462  1.0000
  C   C9        1.0  0.41547  0.00000  0.00000  1.0000
  C   C10       1.0  0.32133  0.00000  0.00000  1.0000
  C   C11       1.0  0.14330  0.00000  0.00000  1.0000
  O   O5        1.0  0.06643  0.00000  0.00000  1.0000
  C   C12       1.0  0.58453  0.00000  0.00000  1.0000
  C   C13       1.0  0.67867  0.00000  0.00000  1.0000
  C   C14       1.0  0.85670  0.00000  0.00000  1.0000
  O   O6        1.0  0.93357  0.00000  0.00000  1.0000
  N   N5        1.0  0.00000  0.45773  0.32625  1.0000
  C   C15       1.0  0.00000  0.27682  0.33029  1.0000
  C   C16       1.0  0.00000  0.18780  0.33029  1.0000
  H   H5        1.0  0.00000  0.30660  0.38401  1.0000
  O   O7        1.0  0.00000  0.14618  0.40539  1.0000
  N   N6        1.0  0.00000  0.54227  0.32625  1.0000
  C   C17       1.0  0.00000  0.72318  0.33029  1.0000
  C   C18       1.0  0.00000  0.81220  0.33029  1.0000
  H   H6        1.0  0.00000  0.69340  0.38401  1.0000
  O   O8        1.0  0.00000  0.85382  0.40539  1.0000
  N   N7        1.0  0.00000  0.45773  0.17375  1.0000
  C   C19       1.0  0.00000  0.27682  0.16971  1.0000
  C   C20       1.0  0.00000  0.18780  0.16971  1.0000
  H   H7        1.0  0.00000  0.30660  0.11599  1.0000
  O   O9        1.0  0.00000  0.14618  0.09462  1.0000
  N   N8        1.0  0.00000  0.54227  0.17375  1.0000
  C   C21       1.0  0.00000  0.72318  0.16971  1.0000
  C   C22       1.0  0.00000  0.81220  0.16971  1.0000
  H   H8        1.0  0.00000  0.69340  0.11599  1.0000
  O   O10       1.0  0.00000  0.85382  0.09462  1.0000
  C   C23       1.0  0.00000  0.41547  0.25000  1.0000
  C   C24       1.0  0.00000  0.32133  0.25000  1.0000
  C   C25       1.0  0.00000  0.14330  0.25000  1.0000
  O   O11       1.0  0.00000  0.06643  0.25000  1.0000
  C   C26       1.0  0.00000  0.58453  0.25000  1.0000
  C   C27       1.0  0.00000  0.67867  0.25000  1.0000
  C   C28       1.0  0.00000  0.85670  0.25000  1.0000
  O   O12       1.0  0.00000  0.93357  0.25000  1.0000
  Zr  Zr1       1.0  0.00000  0.00000  0.12500  1.0000
  Zr  Zr2       1.0  0.00000  0.00000  0.37500  1.0000
  N   N9        1.0  0.45773  0.00000  0.57625  1.0000
  C   C29       1.0  0.27682  0.00000  0.58029  1.0000
  C   C30       1.0  0.18780  0.00000  0.58029  1.0000
  H   H9        1.0  0.30660  0.00000  0.63401  1.0000
  O   O13       1.0  0.14618  0.00000  0.65538  1.0000
  N   N10       1.0  0.54227  0.00000  0.57625  1.0000
  C   C31       1.0  0.72318  0.00000  0.58029  1.0000
  C   C32       1.0  0.81220  0.00000  0.58029  1.0000
  H   H10       1.0  0.69340  0.00000  0.63401  1.0000
  O   O14       1.0  0.85382  0.00000  0.65538  1.0000
  N   N11       1.0  0.54227  0.00000  0.92375  1.0000
  C   C33       1.0  0.72318  0.00000  0.91971  1.0000
  C   C34       1.0  0.81220  0.00000  0.91971  1.0000
  H   H11       1.0  0.69340  0.00000  0.86599  1.0000
  O   O15       1.0  0.85382  0.00000  0.84462  1.0000
  N   N12       1.0  0.45773  0.00000  0.92375  1.0000
  C   C35       1.0  0.27682  0.00000  0.91971  1.0000
  C   C36       1.0  0.18780  0.00000  0.91971  1.0000
  H   H12       1.0  0.30660  0.00000  0.86599  1.0000
  O   O16       1.0  0.14618  0.00000  0.84462  1.0000
  C   C37       1.0  0.41547  0.00000  0.50000  1.0000
  C   C38       1.0  0.32133  0.00000  0.50000  1.0000
  C   C39       1.0  0.14330  0.00000  0.50000  1.0000
  O   O17       1.0  0.06643  0.00000  0.50000  1.0000
  C   C40       1.0  0.58453  0.00000  0.50000  1.0000
  C   C41       1.0  0.67867  0.00000  0.50000  1.0000
  C   C42       1.0  0.85670  0.00000  0.50000  1.0000
  O   O18       1.0  0.93357  0.00000  0.50000  1.0000
  N   N13       1.0  0.00000  0.45773  0.82625  1.0000
  C   C43       1.0  0.00000  0.27682  0.83029  1.0000
  C   C44       1.0  0.00000  0.18780  0.83029  1.0000
  H   H13       1.0  0.00000  0.30660  0.88401  1.0000
  O   O19       1.0  0.00000  0.14618  0.90539  1.0000
  N   N14       1.0  0.00000  0.54227  0.82625  1.0000
  C   C45       1.0  0.00000  0.72318  0.83029  1.0000
  C   C46       1.0  0.00000  0.81220  0.83029  1.0000
  H   H14       1.0  0.00000  0.69340  0.88401  1.0000
  O   O20       1.0  0.00000  0.85382  0.90539  1.0000
  N   N15       1.0  0.00000  0.45773  0.67375  1.0000
  C   C47       1.0  0.00000  0.27682  0.66971  1.0000
  C   C48       1.0  0.00000  0.18780  0.66971  1.0000
  H   H15       1.0  0.00000  0.30660  0.61599  1.0000
  O   O21       1.0  0.00000  0.14618  0.59462  1.0000
  N   N16       1.0  0.00000  0.54227  0.67375  1.0000
  C   C49       1.0  0.00000  0.72318  0.66971  1.0000
  C   C50       1.0  0.00000  0.81220  0.66971  1.0000
  H   H16       1.0  0.00000  0.69340  0.61599  1.0000
  O   O22       1.0  0.00000  0.85382  0.59462  1.0000
  C   C51       1.0  0.00000  0.41547  0.75000  1.0000
  C   C52       1.0  0.00000  0.32133  0.75000  1.0000
  C   C53       1.0  0.00000  0.14330  0.75000  1.0000
  O   O23       1.0  0.00000  0.06643  0.75000  1.0000
  C   C54       1.0  0.00000  0.58453  0.75000  1.0000
  C   C55       1.0  0.00000  0.67867  0.75000  1.0000
  C   C56       1.0  0.00000  0.85670  0.75000  1.0000
  O   O24       1.0  0.00000  0.93357  0.75000  1.0000
  Zr  Zr3       1.0  0.00000  0.00000  0.62500  1.0000
  Zr  Zr4       1.0  0.00000  0.00000  0.87500  1.0000
