data_image0
_chemical_formula_structural       O4N2C2HC2HC2HC3O4N2CHC2Sr2O6N2C2HC2HC2HC3O4N2CHC2Sr2O2
_chemical_formula_sum              "O20 N8 C24 H8 Sr4"
_cell_length_a       12.4562
_cell_length_b       9.4499
_cell_length_c       10.616
_cell_angle_alpha    73.814
_cell_angle_beta     80.723
_cell_angle_gamma    75.136

_space_group_name_H-M_alt    "P 1"
_space_group_IT_number       1

loop_
  _space_group_symop_operation_xyz
  'x, y, z'

loop_
  _atom_site_type_symbol
  _atom_site_label
  _atom_site_symmetry_multiplicity
  _atom_site_fract_x
  _atom_site_fract_y
  _atom_site_fract_z
  _atom_site_occupancy
  O   O1        1.0  0.37390  0.46170  0.65450  1.0000
  O   O2        1.0  0.35415  0.63520  0.77150  1.0000
  O   O3        1.0  0.39890  0.41040  0.13520  1.0000
  O   O4        1.0  0.41610  0.23830  0.02690  1.0000
  N   N1        1.0  0.17530  0.40050  0.77620  1.0000
  N   N2        1.0  0.09840  0.47210  0.01900  1.0000
  C   C1        1.0  0.22640  0.47960  0.82190  1.0000
  C   C2        1.0  0.18715  0.51710  0.94550  1.0000
  H   H1        1.0  0.22405  0.57370  0.97520  1.0000
  C   C3        1.0  0.04885  0.39090  0.96730  1.0000
  C   C4        1.0  0.08565  0.35970  0.84940  1.0000
  H   H2        1.0  0.04660  0.30730  0.81770  1.0000
  C   C5        1.0  0.32465  0.53100  0.74060  1.0000
  C   C6        1.0  0.44295  0.34400  0.04870  1.0000
  H   H3        1.0  0.22040  0.95360  0.51680  1.0000
  C   C7        1.0  0.33055  0.82590  0.41420  1.0000
  C   C8        1.0  0.00715  0.16960  0.35530  1.0000
  C   C9        1.0  0.26860  0.70610  0.43330  1.0000
  O   O5        1.0  0.31140  0.59450  0.38310  1.0000
  O   O6        1.0  0.17615  0.72140  0.50380  1.0000
  O   O7        1.0  0.46455  0.27540  0.41240  1.0000
  O   O8        1.0  0.09555  0.15470  0.28640  1.0000
  N   N3        1.0  0.42960  0.81610  0.33980  1.0000
  N   N4        1.0  0.34365  0.06210  0.45230  1.0000
  C   C10       1.0  0.48405  0.92270  0.32170  1.0000
  H   H4        1.0  0.05185  0.91770  0.26950  1.0000
  C   C11       1.0  0.44110  0.04480  0.38040  1.0000
  C   C12       1.0  0.28945  0.94770  0.46730  1.0000
  Sr  Sr1       1.0  0.26880  0.33093  0.53619  1.0000
  Sr  Sr2       1.0  0.00565  0.54202  0.25571  1.0000
  O   O9        1.0  0.21025  0.35960  0.29750  1.0000
  O   O10       1.0  0.06510  0.51160  0.49560  1.0000
  O   O11       1.0  0.87390  0.46170  0.65450  1.0000
  O   O12       1.0  0.85415  0.63520  0.77150  1.0000
  O   O13       1.0  0.89890  0.41040  0.13520  1.0000
  O   O14       1.0  0.91610  0.23830  0.02690  1.0000
  N   N5        1.0  0.67530  0.40050  0.77620  1.0000
  N   N6        1.0  0.59840  0.47210  0.01900  1.0000
  C   C13       1.0  0.72640  0.47960  0.82190  1.0000
  C   C14       1.0  0.68715  0.51710  0.94550  1.0000
  H   H5        1.0  0.72405  0.57370  0.97520  1.0000
  C   C15       1.0  0.54885  0.39090  0.96730  1.0000
  C   C16       1.0  0.58565  0.35970  0.84940  1.0000
  H   H6        1.0  0.54660  0.30730  0.81770  1.0000
  C   C17       1.0  0.82465  0.53100  0.74060  1.0000
  C   C18       1.0  0.94295  0.34400  0.04870  1.0000
  H   H7        1.0  0.72040  0.95360  0.51680  1.0000
  C   C19       1.0  0.83055  0.82590  0.41420  1.0000
  C   C20       1.0  0.50715  0.16960  0.35530  1.0000
  C   C21       1.0  0.76860  0.70610  0.43330  1.0000
  O   O15       1.0  0.81140  0.59450  0.38310  1.0000
  O   O16       1.0  0.67615  0.72140  0.50380  1.0000
  O   O17       1.0  0.96455  0.27540  0.41240  1.0000
  O   O18       1.0  0.59555  0.15470  0.28640  1.0000
  N   N7        1.0  0.92960  0.81610  0.33980  1.0000
  N   N8        1.0  0.84365  0.06210  0.45230  1.0000
  C   C22       1.0  0.98405  0.92270  0.32170  1.0000
  H   H8        1.0  0.55185  0.91770  0.26950  1.0000
  C   C23       1.0  0.94110  0.04480  0.38040  1.0000
  C   C24       1.0  0.78945  0.94770  0.46730  1.0000
  Sr  Sr3       1.0  0.76880  0.33093  0.53619  1.0000
  Sr  Sr4       1.0  0.50564  0.54202  0.25571  1.0000
  O   O19       1.0  0.71025  0.35960  0.29750  1.0000
  O   O20       1.0  0.56510  0.51160  0.49560  1.0000
