data_image0
_chemical_formula_structural       SO5C3HCHC3HSO5C3HCHCOC2HSO5C3HCHC3HOSO5C3HCHC3HSO5C3HCHC3HOSO5C3HCHC3HO4C3HCHC3HSO5C3HCHC3HOSOHO2HOHOHOHOHOHOHTb8
_chemical_formula_sum              "S8 O52 C56 H32 Tb8"
_cell_length_a       12.8897
_cell_length_b       12.8897
_cell_length_c       16.4462
_cell_angle_alpha    90
_cell_angle_beta     90
_cell_angle_gamma    90

_space_group_name_H-M_alt    "P 1"
_space_group_IT_number       1

loop_
  _space_group_symop_operation_xyz
  'x, y, z'

loop_
  _atom_site_type_symbol
  _atom_site_label
  _atom_site_symmetry_multiplicity
  _atom_site_fract_x
  _atom_site_fract_y
  _atom_site_fract_z
  _atom_site_occupancy
  S   S1        1.0  0.28658  0.43926  0.71847  1.0000
  O   O1        1.0  0.11070  0.74780  0.54490  1.0000
  O   O2        1.0  0.24190  0.83830  0.49380  1.0000
  O   O3        1.0  0.31420  0.34350  0.67750  1.0000
  O   O4        1.0  0.17540  0.45080  0.73020  1.0000
  O   O5        1.0  0.34490  0.45190  0.79460  1.0000
  C   C1        1.0  0.20600  0.76300  0.53230  1.0000
  C   C2        1.0  0.28290  0.68690  0.56690  1.0000
  C   C3        1.0  0.38650  0.69670  0.54740  1.0000
  H   H1        1.0  0.40710  0.74680  0.51010  1.0000
  C   C4        1.0  0.45980  0.63290  0.58270  1.0000
  H   H2        1.0  0.52980  0.64070  0.57020  1.0000
  C   C5        1.0  0.42810  0.55810  0.63620  1.0000
  C   C6        1.0  0.32600  0.54110  0.65380  1.0000
  C   C7        1.0  0.25110  0.60910  0.61880  1.0000
  H   H3        1.0  0.18110  0.60110  0.63090  1.0000
  S   S2        1.0  0.71342  0.56074  0.71847  1.0000
  O   O6        1.0  0.88930  0.25220  0.54490  1.0000
  O   O7        1.0  0.75810  0.16170  0.49380  1.0000
  O   O8        1.0  0.68580  0.65650  0.67750  1.0000
  O   O9        1.0  0.82460  0.54920  0.73020  1.0000
  O   O10       1.0  0.65510  0.54810  0.79460  1.0000
  C   C8        1.0  0.79400  0.23700  0.53230  1.0000
  C   C9        1.0  0.71710  0.31310  0.56690  1.0000
  C   C10       1.0  0.61350  0.30330  0.54740  1.0000
  H   H4        1.0  0.59290  0.25320  0.51010  1.0000
  C   C11       1.0  0.54020  0.36710  0.58270  1.0000
  H   H5        1.0  0.47020  0.35930  0.57020  1.0000
  C   C12       1.0  0.57190  0.44190  0.63620  1.0000
  O   O11       1.0  0.50000  0.50000  0.67900  1.0000
  C   C13       1.0  0.67400  0.45890  0.65380  1.0000
  C   C14       1.0  0.74890  0.39090  0.61880  1.0000
  H   H6        1.0  0.81890  0.39890  0.63090  1.0000
  S   S3        1.0  0.78658  0.93926  0.21847  1.0000
  O   O12       1.0  0.61070  0.24780  0.04490  1.0000
  O   O13       1.0  0.74190  0.33830  0.99380  1.0000
  O   O14       1.0  0.81420  0.84350  0.17750  1.0000
  O   O15       1.0  0.67540  0.95080  0.23020  1.0000
  O   O16       1.0  0.84490  0.95190  0.29460  1.0000
  C   C15       1.0  0.70600  0.26300  0.03230  1.0000
  C   C16       1.0  0.78290  0.18690  0.06690  1.0000
  C   C17       1.0  0.88650  0.19670  0.04740  1.0000
  H   H7        1.0  0.90710  0.24680  0.01010  1.0000
  C   C18       1.0  0.95980  0.13290  0.08270  1.0000
  H   H8        1.0  0.02980  0.14070  0.07020  1.0000
  C   C19       1.0  0.92810  0.05810  0.13620  1.0000
  C   C20       1.0  0.82600  0.04110  0.15380  1.0000
  C   C21       1.0  0.75110  0.10910  0.11880  1.0000
  H   H9        1.0  0.68110  0.10110  0.13090  1.0000
  O   O17       1.0  0.00000  0.00000  0.17900  1.0000
  S   S4        1.0  0.21342  0.06074  0.21847  1.0000
  O   O18       1.0  0.38930  0.75220  0.04490  1.0000
  O   O19       1.0  0.25810  0.66170  0.99380  1.0000
  O   O20       1.0  0.18580  0.15650  0.17750  1.0000
  O   O21       1.0  0.32460  0.04920  0.23020  1.0000
  O   O22       1.0  0.15510  0.04810  0.29460  1.0000
  C   C22       1.0  0.29400  0.73700  0.03230  1.0000
  C   C23       1.0  0.21710  0.81310  0.06690  1.0000
  C   C24       1.0  0.11350  0.80330  0.04740  1.0000
  H   H10       1.0  0.09290  0.75320  0.01010  1.0000
  C   C25       1.0  0.04020  0.86710  0.08270  1.0000
  H   H11       1.0  0.97020  0.85930  0.07020  1.0000
  C   C26       1.0  0.07190  0.94190  0.13620  1.0000
  C   C27       1.0  0.17400  0.95890  0.15380  1.0000
  C   C28       1.0  0.24890  0.89090  0.11880  1.0000
  H   H12       1.0  0.31890  0.89890  0.13090  1.0000
  S   S5        1.0  0.56074  0.28658  0.28153  1.0000
  O   O23       1.0  0.25220  0.11070  0.45510  1.0000
  O   O24       1.0  0.16170  0.24190  0.50620  1.0000
  O   O25       1.0  0.65650  0.31420  0.32250  1.0000
  O   O26       1.0  0.54920  0.17540  0.26980  1.0000
  O   O27       1.0  0.54810  0.34490  0.20540  1.0000
  C   C29       1.0  0.23700  0.20600  0.46770  1.0000
  C   C30       1.0  0.31310  0.28290  0.43310  1.0000
  C   C31       1.0  0.30330  0.38650  0.45260  1.0000
  H   H13       1.0  0.25320  0.40710  0.48990  1.0000
  C   C32       1.0  0.36710  0.45980  0.41730  1.0000
  H   H14       1.0  0.35930  0.52980  0.42980  1.0000
  C   C33       1.0  0.44190  0.42810  0.36380  1.0000
  C   C34       1.0  0.45890  0.32600  0.34620  1.0000
  C   C35       1.0  0.39090  0.25110  0.38120  1.0000
  H   H15       1.0  0.39890  0.18110  0.36910  1.0000
  O   O28       1.0  0.50000  0.50000  0.32100  1.0000
  S   S6        1.0  0.43926  0.71342  0.28153  1.0000
  O   O29       1.0  0.74780  0.88930  0.45510  1.0000
  O   O30       1.0  0.83830  0.75810  0.50620  1.0000
  O   O31       1.0  0.34350  0.68580  0.32250  1.0000
  O   O32       1.0  0.45080  0.82460  0.26980  1.0000
  O   O33       1.0  0.45190  0.65510  0.20540  1.0000
  C   C36       1.0  0.76300  0.79400  0.46770  1.0000
  C   C37       1.0  0.68690  0.71710  0.43310  1.0000
  C   C38       1.0  0.69670  0.61350  0.45260  1.0000
  H   H16       1.0  0.74680  0.59290  0.48990  1.0000
  C   C39       1.0  0.63290  0.54020  0.41730  1.0000
  H   H17       1.0  0.64070  0.47020  0.42980  1.0000
  C   C40       1.0  0.55810  0.57190  0.36380  1.0000
  C   C41       1.0  0.54110  0.67400  0.34620  1.0000
  C   C42       1.0  0.60910  0.74890  0.38120  1.0000
  H   H18       1.0  0.60110  0.81890  0.36910  1.0000
  O   O34       1.0  0.33830  0.25810  0.00620  1.0000
  O   O35       1.0  0.84350  0.18580  0.82250  1.0000
  O   O36       1.0  0.95080  0.32460  0.76980  1.0000
  O   O37       1.0  0.95190  0.15510  0.70540  1.0000
  C   C43       1.0  0.26300  0.29400  0.96770  1.0000
  C   C44       1.0  0.18690  0.21710  0.93310  1.0000
  C   C45       1.0  0.19670  0.11350  0.95260  1.0000
  H   H19       1.0  0.24680  0.09290  0.98990  1.0000
  C   C46       1.0  0.13290  0.04020  0.91730  1.0000
  H   H20       1.0  0.14070  0.97020  0.92980  1.0000
  C   C47       1.0  0.05810  0.07190  0.86380  1.0000
  C   C48       1.0  0.04110  0.17400  0.84620  1.0000
  C   C49       1.0  0.10910  0.24890  0.88120  1.0000
  H   H21       1.0  0.10110  0.31890  0.86910  1.0000
  S   S7        1.0  0.06074  0.78658  0.78153  1.0000
  O   O38       1.0  0.75220  0.61070  0.95510  1.0000
  O   O39       1.0  0.66170  0.74190  0.00620  1.0000
  O   O40       1.0  0.15650  0.81420  0.82250  1.0000
  O   O41       1.0  0.04920  0.67540  0.76980  1.0000
  O   O42       1.0  0.04810  0.84490  0.70540  1.0000
  C   C50       1.0  0.73700  0.70600  0.96770  1.0000
  C   C51       1.0  0.81310  0.78290  0.93310  1.0000
  C   C52       1.0  0.80330  0.88650  0.95260  1.0000
  H   H22       1.0  0.75320  0.90710  0.98990  1.0000
  C   C53       1.0  0.86710  0.95980  0.91730  1.0000
  H   H23       1.0  0.85930  0.02980  0.92980  1.0000
  C   C54       1.0  0.94190  0.92810  0.86380  1.0000
  C   C55       1.0  0.95890  0.82600  0.84620  1.0000
  C   C56       1.0  0.89090  0.75110  0.88120  1.0000
  H   H24       1.0  0.89890  0.68110  0.86910  1.0000
  O   O43       1.0  0.00000  0.00000  0.82100  1.0000
  S   S8        1.0  0.93926  0.21342  0.78153  1.0000
  O   O44       1.0  0.24780  0.38930  0.95510  1.0000
  H   H25       1.0  0.52730  0.65130  0.90510  1.0000
  O   O45       1.0  0.51700  0.60070  0.93720  1.0000
  O   O46       1.0  0.01700  0.10070  0.43720  1.0000
  H   H26       1.0  0.02730  0.15130  0.40510  1.0000
  O   O47       1.0  0.48300  0.39930  0.93720  1.0000
  H   H27       1.0  0.47270  0.34870  0.90510  1.0000
  O   O48       1.0  0.98300  0.89930  0.43720  1.0000
  H   H28       1.0  0.97270  0.84870  0.40510  1.0000
  O   O49       1.0  0.60070  0.48300  0.06280  1.0000
  H   H29       1.0  0.65130  0.47270  0.09490  1.0000
  O   O50       1.0  0.10070  0.98300  0.56280  1.0000
  H   H30       1.0  0.15130  0.97270  0.59490  1.0000
  O   O51       1.0  0.39930  0.51700  0.06280  1.0000
  H   H31       1.0  0.34870  0.52730  0.09490  1.0000
  O   O52       1.0  0.89930  0.01700  0.56280  1.0000
  H   H32       1.0  0.84870  0.02730  0.59490  1.0000
  Tb  Tb1       1.0  0.34840  0.53256  0.92358  1.0000
  Tb  Tb2       1.0  0.53256  0.65160  0.07642  1.0000
  Tb  Tb3       1.0  0.15160  0.96744  0.42358  1.0000
  Tb  Tb4       1.0  0.96744  0.84840  0.57642  1.0000
  Tb  Tb5       1.0  0.65160  0.46744  0.92358  1.0000
  Tb  Tb6       1.0  0.46744  0.34840  0.07642  1.0000
  Tb  Tb7       1.0  0.84840  0.03256  0.42358  1.0000
  Tb  Tb8       1.0  0.03256  0.15160  0.57642  1.0000
