data_image0
_chemical_formula_structural       C8HCHCHCHCN2HO3HO3C8HCHCHCHCN2HO3HO3N2HO3HO3C8HCHCHCHC9HCHCHCHCN2HO3HO3CHCHCHCHC3HCHCHCHN2CHCHCHCHC3HCHCHCHN2CHC3HCHCHCHN2CHCHCHCHCHCHCHC3HCHCHCHN2Mn4
_chemical_formula_sum              "C88 H56 N16 O24 Mn4"
_cell_length_a       13.9816
_cell_length_b       9.9589
_cell_length_c       22.266
_cell_angle_alpha    90
_cell_angle_beta     134.898
_cell_angle_gamma    90

_space_group_name_H-M_alt    "P 1"
_space_group_IT_number       1

loop_
  _space_group_symop_operation_xyz
  'x, y, z'

loop_
  _atom_site_type_symbol
  _atom_site_label
  _atom_site_symmetry_multiplicity
  _atom_site_fract_x
  _atom_site_fract_y
  _atom_site_fract_z
  _atom_site_occupancy
  C   C1        1.0  0.58050  0.01690  0.38241  1.0000
  C   C2        1.0  0.70410  0.94780  0.57542  1.0000
  C   C3        1.0  0.53420  0.92750  0.41082  1.0000
  C   C4        1.0  0.58850  0.89480  0.48962  1.0000
  C   C5        1.0  0.41190  0.76680  0.39306  1.0000
  C   C6        1.0  0.30750  0.66220  0.35574  1.0000
  C   C7        1.0  0.33730  0.52490  0.36571  1.0000
  C   C8        1.0  0.23630  0.43340  0.33542  1.0000
  H   H1        1.0  0.25500  0.34190  0.34290  1.0000
  C   C9        1.0  0.10840  0.47710  0.29430  1.0000
  H   H2        1.0  0.04210  0.41470  0.27470  1.0000
  C   C10       1.0  0.07850  0.61110  0.28210  1.0000
  H   H3        1.0  0.99160  0.63970  0.25280  1.0000
  C   C11       1.0  0.17880  0.70400  0.31376  1.0000
  H   H4        1.0  0.15920  0.79520  0.30670  1.0000
  C   C12       1.0  0.46930  0.47120  0.39950  1.0000
  N   N1        1.0  0.42195  0.84828  0.35028  1.0000
  N   N2        1.0  0.50952  0.79291  0.47665  1.0000
  H   H5        1.0  0.52050  0.75260  0.51530  1.0000
  O   O1        1.0  0.51949  0.00500  0.30611  1.0000
  O   O2        1.0  0.67764  0.09628  0.43447  1.0000
  O   O3        1.0  0.77571  0.04350  0.58097  1.0000
  H   H6        1.0  0.74470  0.05870  0.53380  1.0000
  O   O4        1.0  0.73270  0.90590  0.63746  1.0000
  O   O5        1.0  0.53033  0.54281  0.38784  1.0000
  O   O6        1.0  0.50908  0.35805  0.43295  1.0000
  C   C13       1.0  0.41950  0.51690  0.11759  1.0000
  C   C14       1.0  0.29590  0.44780  0.92458  1.0000
  C   C15       1.0  0.46580  0.42750  0.08918  1.0000
  C   C16       1.0  0.41150  0.39480  0.01038  1.0000
  C   C17       1.0  0.58810  0.26680  0.10694  1.0000
  C   C18       1.0  0.69250  0.16220  0.14426  1.0000
  C   C19       1.0  0.66270  0.02490  0.13429  1.0000
  C   C20       1.0  0.76370  0.93340  0.16458  1.0000
  H   H7        1.0  0.74500  0.84190  0.15710  1.0000
  C   C21       1.0  0.89160  0.97710  0.20570  1.0000
  H   H8        1.0  0.95790  0.91470  0.22530  1.0000
  C   C22       1.0  0.92150  0.11110  0.21790  1.0000
  H   H9        1.0  0.00840  0.13970  0.24720  1.0000
  C   C23       1.0  0.82120  0.20400  0.18624  1.0000
  H   H10       1.0  0.84080  0.29520  0.19330  1.0000
  C   C24       1.0  0.53070  0.97120  0.10050  1.0000
  N   N3        1.0  0.57805  0.34828  0.14972  1.0000
  N   N4        1.0  0.49048  0.29291  0.02335  1.0000
  H   H11       1.0  0.47950  0.25260  0.98470  1.0000
  O   O7        1.0  0.48051  0.50500  0.19389  1.0000
  O   O8        1.0  0.32236  0.59628  0.06553  1.0000
  O   O9        1.0  0.22429  0.54350  0.91903  1.0000
  H   H12       1.0  0.25530  0.55870  0.96620  1.0000
  O   O10       1.0  0.26730  0.40590  0.86254  1.0000
  O   O11       1.0  0.46967  0.04281  0.11216  1.0000
  O   O12       1.0  0.49092  0.85805  0.06705  1.0000
  N   N5        1.0  0.57805  0.15172  0.64972  1.0000
  N   N6        1.0  0.49048  0.20709  0.52335  1.0000
  H   H13       1.0  0.47950  0.24740  0.48470  1.0000
  O   O13       1.0  0.48051  0.99500  0.69389  1.0000
  O   O14       1.0  0.32236  0.90372  0.56553  1.0000
  O   O15       1.0  0.22429  0.95650  0.41903  1.0000
  H   H14       1.0  0.25530  0.94130  0.46620  1.0000
  O   O16       1.0  0.26730  0.09410  0.36254  1.0000
  O   O17       1.0  0.46967  0.45719  0.61216  1.0000
  O   O18       1.0  0.49092  0.64195  0.56705  1.0000
  C   C25       1.0  0.41950  0.98310  0.61759  1.0000
  C   C26       1.0  0.29590  0.05220  0.42458  1.0000
  C   C27       1.0  0.46580  0.07250  0.58918  1.0000
  C   C28       1.0  0.41150  0.10520  0.51038  1.0000
  C   C29       1.0  0.58810  0.23320  0.60694  1.0000
  C   C30       1.0  0.69250  0.33780  0.64426  1.0000
  C   C31       1.0  0.66270  0.47510  0.63429  1.0000
  C   C32       1.0  0.76370  0.56660  0.66458  1.0000
  H   H15       1.0  0.74500  0.65810  0.65710  1.0000
  C   C33       1.0  0.89160  0.52290  0.70570  1.0000
  H   H16       1.0  0.95790  0.58530  0.72530  1.0000
  C   C34       1.0  0.92150  0.38890  0.71790  1.0000
  H   H17       1.0  0.00840  0.36030  0.74720  1.0000
  C   C35       1.0  0.82120  0.29600  0.68624  1.0000
  H   H18       1.0  0.84080  0.20480  0.69330  1.0000
  C   C36       1.0  0.53070  0.52880  0.60050  1.0000
  C   C37       1.0  0.58050  0.48310  0.88241  1.0000
  C   C38       1.0  0.70410  0.55220  0.07542  1.0000
  C   C39       1.0  0.53420  0.57250  0.91082  1.0000
  C   C40       1.0  0.58850  0.60520  0.98962  1.0000
  C   C41       1.0  0.41190  0.73320  0.89306  1.0000
  C   C42       1.0  0.30750  0.83780  0.85574  1.0000
  C   C43       1.0  0.33730  0.97510  0.86571  1.0000
  C   C44       1.0  0.23630  0.06660  0.83542  1.0000
  H   H19       1.0  0.25500  0.15810  0.84290  1.0000
  C   C45       1.0  0.10840  0.02290  0.79430  1.0000
  H   H20       1.0  0.04210  0.08530  0.77470  1.0000
  C   C46       1.0  0.07850  0.88890  0.78210  1.0000
  H   H21       1.0  0.99160  0.86030  0.75280  1.0000
  C   C47       1.0  0.17880  0.79600  0.81376  1.0000
  H   H22       1.0  0.15920  0.70480  0.80670  1.0000
  C   C48       1.0  0.46930  0.02880  0.89950  1.0000
  N   N7        1.0  0.42195  0.65172  0.85028  1.0000
  N   N8        1.0  0.50952  0.70709  0.97665  1.0000
  H   H23       1.0  0.52050  0.74740  0.01530  1.0000
  O   O19       1.0  0.51949  0.49500  0.80611  1.0000
  O   O20       1.0  0.67764  0.40372  0.93447  1.0000
  O   O21       1.0  0.77571  0.45650  0.08097  1.0000
  H   H24       1.0  0.74470  0.44130  0.03380  1.0000
  O   O22       1.0  0.73270  0.59410  0.13746  1.0000
  O   O23       1.0  0.53033  0.95719  0.88784  1.0000
  O   O24       1.0  0.50908  0.14195  0.93295  1.0000
  C   C49       1.0  0.27850  0.19890  0.20160  1.0000
  H   H25       1.0  0.37140  0.20370  0.23710  1.0000
  C   C50       1.0  0.20900  0.31700  0.17880  1.0000
  H   H26       1.0  0.25310  0.39940  0.19730  1.0000
  C   C51       1.0  0.07370  0.30930  0.12820  1.0000
  H   H27       1.0  0.02400  0.38700  0.11310  1.0000
  C   C52       1.0  0.01050  0.18680  0.09940  1.0000
  H   H28       1.0  0.91750  0.18130  0.06340  1.0000
  C   C53       1.0  0.08620  0.07110  0.12431  1.0000
  C   C54       1.0  0.02580  0.93620  0.09581  1.0000
  C   C55       1.0  0.88770  0.91490  0.03700  1.0000
  H   H29       1.0  0.82950  0.98750  0.01550  1.0000
  C   C56       1.0  0.83700  0.78840  0.01060  1.0000
  H   H30       1.0  0.74420  0.77430  0.97060  1.0000
  C   C57       1.0  0.92290  0.68280  0.04290  1.0000
  H   H31       1.0  0.89030  0.59540  0.02580  1.0000
  C   C58       1.0  0.06120  0.70890  0.10240  1.0000
  H   H32       1.0  0.12030  0.63690  0.12480  1.0000
  N   N9        1.0  0.22100  0.07800  0.17613  1.0000
  N   N10       1.0  0.11240  0.83220  0.12870  1.0000
  C   C59       1.0  0.72150  0.69890  0.29840  1.0000
  H   H33       1.0  0.62860  0.70370  0.26290  1.0000
  C   C60       1.0  0.79100  0.81700  0.32120  1.0000
  H   H34       1.0  0.74690  0.89940  0.30270  1.0000
  C   C61       1.0  0.92630  0.80930  0.37180  1.0000
  H   H35       1.0  0.97600  0.88700  0.38690  1.0000
  C   C62       1.0  0.98950  0.68680  0.40060  1.0000
  H   H36       1.0  0.08250  0.68130  0.43660  1.0000
  C   C63       1.0  0.91380  0.57110  0.37569  1.0000
  C   C64       1.0  0.97420  0.43620  0.40419  1.0000
  C   C65       1.0  0.11230  0.41490  0.46300  1.0000
  H   H37       1.0  0.17050  0.48750  0.48450  1.0000
  C   C66       1.0  0.16300  0.28840  0.48940  1.0000
  H   H38       1.0  0.25580  0.27430  0.52940  1.0000
  C   C67       1.0  0.07710  0.18280  0.45710  1.0000
  H   H39       1.0  0.10970  0.09540  0.47420  1.0000
  C   C68       1.0  0.93880  0.20890  0.39760  1.0000
  H   H40       1.0  0.87970  0.13690  0.37520  1.0000
  N   N11       1.0  0.77900  0.57800  0.32387  1.0000
  N   N12       1.0  0.88760  0.33220  0.37130  1.0000
  C   C69       1.0  0.98950  0.81320  0.90060  1.0000
  H   H41       1.0  0.08250  0.81870  0.93660  1.0000
  C   C70       1.0  0.91380  0.92890  0.87569  1.0000
  C   C71       1.0  0.97420  0.06380  0.90419  1.0000
  C   C72       1.0  0.11230  0.08510  0.96300  1.0000
  H   H42       1.0  0.17050  0.01250  0.98450  1.0000
  C   C73       1.0  0.16300  0.21160  0.98940  1.0000
  H   H43       1.0  0.25580  0.22570  0.02940  1.0000
  C   C74       1.0  0.07710  0.31720  0.95710  1.0000
  H   H44       1.0  0.10970  0.40460  0.97420  1.0000
  C   C75       1.0  0.93880  0.29110  0.89760  1.0000
  H   H45       1.0  0.87970  0.36310  0.87520  1.0000
  N   N13       1.0  0.77900  0.92200  0.82387  1.0000
  N   N14       1.0  0.88760  0.16780  0.87130  1.0000
  C   C76       1.0  0.72150  0.80110  0.79840  1.0000
  H   H46       1.0  0.62860  0.79630  0.76290  1.0000
  C   C77       1.0  0.79100  0.68300  0.82120  1.0000
  H   H47       1.0  0.74690  0.60060  0.80270  1.0000
  C   C78       1.0  0.92630  0.69070  0.87180  1.0000
  H   H48       1.0  0.97600  0.61300  0.88690  1.0000
  C   C79       1.0  0.27850  0.30110  0.70160  1.0000
  H   H49       1.0  0.37140  0.29630  0.73710  1.0000
  C   C80       1.0  0.20900  0.18300  0.67880  1.0000
  H   H50       1.0  0.25310  0.10060  0.69730  1.0000
  C   C81       1.0  0.07370  0.19070  0.62820  1.0000
  H   H51       1.0  0.02400  0.11300  0.61310  1.0000
  C   C82       1.0  0.01050  0.31320  0.59940  1.0000
  H   H52       1.0  0.91750  0.31870  0.56340  1.0000
  C   C83       1.0  0.08620  0.42890  0.62431  1.0000
  C   C84       1.0  0.02580  0.56380  0.59581  1.0000
  C   C85       1.0  0.88770  0.58510  0.53700  1.0000
  H   H53       1.0  0.82950  0.51250  0.51550  1.0000
  C   C86       1.0  0.83700  0.71160  0.51060  1.0000
  H   H54       1.0  0.74420  0.72570  0.47060  1.0000
  C   C87       1.0  0.92290  0.81720  0.54290  1.0000
  H   H55       1.0  0.89030  0.90460  0.52580  1.0000
  C   C88       1.0  0.06120  0.79110  0.60240  1.0000
  H   H56       1.0  0.12030  0.86310  0.62480  1.0000
  N   N15       1.0  0.22100  0.42200  0.67613  1.0000
  N   N16       1.0  0.11240  0.66780  0.62870  1.0000
  Mn  Mn1       1.0  0.33426  0.62298  0.71977  1.0000
  Mn  Mn2       1.0  0.33426  0.87702  0.21977  1.0000
  Mn  Mn3       1.0  0.66574  0.12298  0.78023  1.0000
  Mn  Mn4       1.0  0.66574  0.37702  0.28023  1.0000
