data_image0
_chemical_formula_structural       C7HCHCHCHC2N2HO3HO3C7HCHCHCHC2N2HO3HO3C7HCHCHCHC2N2HO3HO6HO3C7HCHCHCHC2N2HC7HCHCHCHC2N2HO3HO3C7HCHCHCHC2N2HO3HO3C7HCHCHCHC2N2HO3HO3C3HCHCHCHC2N2HO3HO3C4Co8
_chemical_formula_sum              "C96 H48 N16 O48 Co8"
_cell_length_a       26.071
_cell_length_b       11.0521
_cell_length_c       16.8163
_cell_angle_alpha    90
_cell_angle_beta     137.197
_cell_angle_gamma    90

_space_group_name_H-M_alt    "P 1"
_space_group_IT_number       1

loop_
  _space_group_symop_operation_xyz
  'x, y, z'

loop_
  _atom_site_type_symbol
  _atom_site_label
  _atom_site_symmetry_multiplicity
  _atom_site_fract_x
  _atom_site_fract_y
  _atom_site_fract_z
  _atom_site_occupancy
  C   C1        1.0  0.62995  0.52660  0.68180  1.0000
  C   C2        1.0  0.46490  0.54890  0.59200  1.0000
  C   C3        1.0  0.58704  0.43970  0.68270  1.0000
  C   C4        1.0  0.51821  0.44850  0.64160  1.0000
  C   C5        1.0  0.56427  0.26460  0.70800  1.0000
  C   C6        1.0  0.56703  0.13440  0.73090  1.0000
  C   C7        1.0  0.52265  0.05520  0.63640  1.0000
  H   H1        1.0  0.49060  0.08540  0.56090  1.0000
  C   C8        1.0  0.52573  0.93260  0.65340  1.0000
  H   H2        1.0  0.49620  0.88050  0.58950  1.0000
  C   C9        1.0  0.57185  0.88710  0.76360  1.0000
  H   H3        1.0  0.57350  0.80420  0.77460  1.0000
  C   C10       1.0  0.61605  0.96410  0.85850  1.0000
  H   H4        1.0  0.64750  0.93210  0.93330  1.0000
  C   C11       1.0  0.61458  0.08850  0.84470  1.0000
  C   C12       1.0  0.65993  0.17120  0.94860  1.0000
  N   N1        1.0  0.61537  0.32520  0.72460  1.0000
  N   N2        1.0  0.50480  0.33670  0.65773  1.0000
  H   H5        1.0  0.46530  0.31560  0.63910  1.0000
  O   O1        1.0  0.69184  0.49111  0.72506  1.0000
  O   O2        1.0  0.60089  0.62925  0.63482  1.0000
  O   O3        1.0  0.47903  0.64881  0.56821  1.0000
  H   H6        1.0  0.51880  0.64120  0.58890  1.0000
  O   O4        1.0  0.40977  0.53930  0.57140  1.0000
  O   O5        1.0  0.63365  0.27293  0.93494  1.0000
  O   O6        1.0  0.72235  0.13081  0.04582  1.0000
  C   C13       1.0  0.12995  0.02660  0.68180  1.0000
  C   C14       1.0  0.96490  0.04890  0.59200  1.0000
  C   C15       1.0  0.08704  0.93970  0.68270  1.0000
  C   C16       1.0  0.01821  0.94850  0.64160  1.0000
  C   C17       1.0  0.06427  0.76460  0.70800  1.0000
  C   C18       1.0  0.06703  0.63440  0.73090  1.0000
  C   C19       1.0  0.02265  0.55520  0.63640  1.0000
  H   H7        1.0  0.99060  0.58540  0.56090  1.0000
  C   C20       1.0  0.02573  0.43260  0.65340  1.0000
  H   H8        1.0  0.99620  0.38050  0.58950  1.0000
  C   C21       1.0  0.07185  0.38710  0.76360  1.0000
  H   H9        1.0  0.07350  0.30420  0.77460  1.0000
  C   C22       1.0  0.11605  0.46410  0.85850  1.0000
  H   H10       1.0  0.14750  0.43210  0.93330  1.0000
  C   C23       1.0  0.11458  0.58850  0.84470  1.0000
  C   C24       1.0  0.15993  0.67120  0.94860  1.0000
  N   N3        1.0  0.11537  0.82520  0.72460  1.0000
  N   N4        1.0  0.00480  0.83670  0.65773  1.0000
  H   H11       1.0  0.96530  0.81560  0.63910  1.0000
  O   O7        1.0  0.19184  0.99111  0.72506  1.0000
  O   O8        1.0  0.10089  0.12925  0.63482  1.0000
  O   O9        1.0  0.97903  0.14881  0.56821  1.0000
  H   H12       1.0  0.01880  0.14120  0.58890  1.0000
  O   O10       1.0  0.90977  0.03930  0.57140  1.0000
  O   O11       1.0  0.13365  0.77293  0.93494  1.0000
  O   O12       1.0  0.22235  0.63081  0.04582  1.0000
  C   C25       1.0  0.37005  0.52660  0.81820  1.0000
  C   C26       1.0  0.53510  0.54890  0.90800  1.0000
  C   C27       1.0  0.41296  0.43970  0.81730  1.0000
  C   C28       1.0  0.48179  0.44850  0.85840  1.0000
  C   C29       1.0  0.43573  0.26460  0.79200  1.0000
  C   C30       1.0  0.43297  0.13440  0.76910  1.0000
  C   C31       1.0  0.47735  0.05520  0.86360  1.0000
  H   H13       1.0  0.50940  0.08540  0.93910  1.0000
  C   C32       1.0  0.47427  0.93260  0.84660  1.0000
  H   H14       1.0  0.50380  0.88050  0.91050  1.0000
  C   C33       1.0  0.42815  0.88710  0.73640  1.0000
  H   H15       1.0  0.42650  0.80420  0.72540  1.0000
  C   C34       1.0  0.38395  0.96410  0.64150  1.0000
  H   H16       1.0  0.35250  0.93210  0.56670  1.0000
  C   C35       1.0  0.38542  0.08850  0.65530  1.0000
  C   C36       1.0  0.34007  0.17120  0.55140  1.0000
  N   N5        1.0  0.38463  0.32520  0.77540  1.0000
  N   N6        1.0  0.49520  0.33670  0.84227  1.0000
  H   H17       1.0  0.53470  0.31560  0.86090  1.0000
  O   O13       1.0  0.30816  0.49111  0.77494  1.0000
  O   O14       1.0  0.39911  0.62925  0.86518  1.0000
  O   O15       1.0  0.52097  0.64881  0.93179  1.0000
  H   H18       1.0  0.48120  0.64120  0.91110  1.0000
  O   O16       1.0  0.59023  0.53930  0.92860  1.0000
  O   O17       1.0  0.36635  0.27293  0.56506  1.0000
  O   O18       1.0  0.27765  0.13081  0.45418  1.0000
  O   O19       1.0  0.80816  0.99111  0.77494  1.0000
  O   O20       1.0  0.89911  0.12925  0.86518  1.0000
  O   O21       1.0  0.02097  0.14881  0.93179  1.0000
  H   H19       1.0  0.98120  0.14120  0.91110  1.0000
  O   O22       1.0  0.09023  0.03930  0.92860  1.0000
  O   O23       1.0  0.86635  0.77293  0.56506  1.0000
  O   O24       1.0  0.77765  0.63081  0.45418  1.0000
  C   C37       1.0  0.87005  0.02660  0.81820  1.0000
  C   C38       1.0  0.03510  0.04890  0.90800  1.0000
  C   C39       1.0  0.91296  0.93970  0.81730  1.0000
  C   C40       1.0  0.98179  0.94850  0.85840  1.0000
  C   C41       1.0  0.93573  0.76460  0.79200  1.0000
  C   C42       1.0  0.93297  0.63440  0.76910  1.0000
  C   C43       1.0  0.97735  0.55520  0.86360  1.0000
  H   H20       1.0  0.00940  0.58540  0.93910  1.0000
  C   C44       1.0  0.97427  0.43260  0.84660  1.0000
  H   H21       1.0  0.00380  0.38050  0.91050  1.0000
  C   C45       1.0  0.92815  0.38710  0.73640  1.0000
  H   H22       1.0  0.92650  0.30420  0.72540  1.0000
  C   C46       1.0  0.88395  0.46410  0.64150  1.0000
  H   H23       1.0  0.85250  0.43210  0.56670  1.0000
  C   C47       1.0  0.88542  0.58850  0.65530  1.0000
  C   C48       1.0  0.84007  0.67120  0.55140  1.0000
  N   N7        1.0  0.88463  0.82520  0.77540  1.0000
  N   N8        1.0  0.99520  0.83670  0.84227  1.0000
  H   H24       1.0  0.03470  0.81560  0.86090  1.0000
  C   C49       1.0  0.37005  0.47340  0.31820  1.0000
  C   C50       1.0  0.53510  0.45110  0.40800  1.0000
  C   C51       1.0  0.41296  0.56030  0.31730  1.0000
  C   C52       1.0  0.48179  0.55150  0.35840  1.0000
  C   C53       1.0  0.43573  0.73540  0.29200  1.0000
  C   C54       1.0  0.43297  0.86560  0.26910  1.0000
  C   C55       1.0  0.47735  0.94480  0.36360  1.0000
  H   H25       1.0  0.50940  0.91460  0.43910  1.0000
  C   C56       1.0  0.47427  0.06740  0.34660  1.0000
  H   H26       1.0  0.50380  0.11950  0.41050  1.0000
  C   C57       1.0  0.42815  0.11290  0.23640  1.0000
  H   H27       1.0  0.42650  0.19580  0.22540  1.0000
  C   C58       1.0  0.38395  0.03590  0.14150  1.0000
  H   H28       1.0  0.35250  0.06790  0.06670  1.0000
  C   C59       1.0  0.38542  0.91150  0.15530  1.0000
  C   C60       1.0  0.34007  0.82880  0.05140  1.0000
  N   N9        1.0  0.38463  0.67480  0.27540  1.0000
  N   N10       1.0  0.49520  0.66330  0.34227  1.0000
  H   H29       1.0  0.53470  0.68440  0.36090  1.0000
  O   O25       1.0  0.30816  0.50889  0.27494  1.0000
  O   O26       1.0  0.39911  0.37075  0.36518  1.0000
  O   O27       1.0  0.52097  0.35119  0.43179  1.0000
  H   H30       1.0  0.48120  0.35880  0.41110  1.0000
  O   O28       1.0  0.59023  0.46070  0.42860  1.0000
  O   O29       1.0  0.36635  0.72707  0.06506  1.0000
  O   O30       1.0  0.27765  0.86919  0.95418  1.0000
  C   C61       1.0  0.87005  0.97340  0.31820  1.0000
  C   C62       1.0  0.03510  0.95110  0.40800  1.0000
  C   C63       1.0  0.91296  0.06030  0.31730  1.0000
  C   C64       1.0  0.98179  0.05150  0.35840  1.0000
  C   C65       1.0  0.93573  0.23540  0.29200  1.0000
  C   C66       1.0  0.93297  0.36560  0.26910  1.0000
  C   C67       1.0  0.97735  0.44480  0.36360  1.0000
  H   H31       1.0  0.00940  0.41460  0.43910  1.0000
  C   C68       1.0  0.97427  0.56740  0.34660  1.0000
  H   H32       1.0  0.00380  0.61950  0.41050  1.0000
  C   C69       1.0  0.92815  0.61290  0.23640  1.0000
  H   H33       1.0  0.92650  0.69580  0.22540  1.0000
  C   C70       1.0  0.88395  0.53590  0.14150  1.0000
  H   H34       1.0  0.85250  0.56790  0.06670  1.0000
  C   C71       1.0  0.88542  0.41150  0.15530  1.0000
  C   C72       1.0  0.84007  0.32880  0.05140  1.0000
  N   N11       1.0  0.88463  0.17480  0.27540  1.0000
  N   N12       1.0  0.99520  0.16330  0.34227  1.0000
  H   H35       1.0  0.03470  0.18440  0.36090  1.0000
  O   O31       1.0  0.80816  0.00889  0.27494  1.0000
  O   O32       1.0  0.89911  0.87075  0.36518  1.0000
  O   O33       1.0  0.02097  0.85119  0.43179  1.0000
  H   H36       1.0  0.98120  0.85880  0.41110  1.0000
  O   O34       1.0  0.09023  0.96070  0.42860  1.0000
  O   O35       1.0  0.86635  0.22707  0.06506  1.0000
  O   O36       1.0  0.77765  0.36919  0.95418  1.0000
  C   C73       1.0  0.62995  0.47340  0.18180  1.0000
  C   C74       1.0  0.46490  0.45110  0.09200  1.0000
  C   C75       1.0  0.58704  0.56030  0.18270  1.0000
  C   C76       1.0  0.51821  0.55150  0.14160  1.0000
  C   C77       1.0  0.56427  0.73540  0.20800  1.0000
  C   C78       1.0  0.56703  0.86560  0.23090  1.0000
  C   C79       1.0  0.52265  0.94480  0.13640  1.0000
  H   H37       1.0  0.49060  0.91460  0.06090  1.0000
  C   C80       1.0  0.52573  0.06740  0.15340  1.0000
  H   H38       1.0  0.49620  0.11950  0.08950  1.0000
  C   C81       1.0  0.57185  0.11290  0.26360  1.0000
  H   H39       1.0  0.57350  0.19580  0.27460  1.0000
  C   C82       1.0  0.61605  0.03590  0.35850  1.0000
  H   H40       1.0  0.64750  0.06790  0.43330  1.0000
  C   C83       1.0  0.61458  0.91150  0.34470  1.0000
  C   C84       1.0  0.65993  0.82880  0.44860  1.0000
  N   N13       1.0  0.61537  0.67480  0.22460  1.0000
  N   N14       1.0  0.50480  0.66330  0.15773  1.0000
  H   H41       1.0  0.46530  0.68440  0.13910  1.0000
  O   O37       1.0  0.69184  0.50889  0.22506  1.0000
  O   O38       1.0  0.60089  0.37075  0.13482  1.0000
  O   O39       1.0  0.47903  0.35119  0.06821  1.0000
  H   H42       1.0  0.51880  0.35880  0.08890  1.0000
  O   O40       1.0  0.40977  0.46070  0.07140  1.0000
  O   O41       1.0  0.63365  0.72707  0.43494  1.0000
  O   O42       1.0  0.72235  0.86919  0.54582  1.0000
  C   C85       1.0  0.06427  0.23540  0.20800  1.0000
  C   C86       1.0  0.06703  0.36560  0.23090  1.0000
  C   C87       1.0  0.02265  0.44480  0.13640  1.0000
  H   H43       1.0  0.99060  0.41460  0.06090  1.0000
  C   C88       1.0  0.02573  0.56740  0.15340  1.0000
  H   H44       1.0  0.99620  0.61950  0.08950  1.0000
  C   C89       1.0  0.07185  0.61290  0.26360  1.0000
  H   H45       1.0  0.07350  0.69580  0.27460  1.0000
  C   C90       1.0  0.11605  0.53590  0.35850  1.0000
  H   H46       1.0  0.14750  0.56790  0.43330  1.0000
  C   C91       1.0  0.11458  0.41150  0.34470  1.0000
  C   C92       1.0  0.15993  0.32880  0.44860  1.0000
  N   N15       1.0  0.11537  0.17480  0.22460  1.0000
  N   N16       1.0  0.00480  0.16330  0.15773  1.0000
  H   H47       1.0  0.96530  0.18440  0.13910  1.0000
  O   O43       1.0  0.19184  0.00889  0.22506  1.0000
  O   O44       1.0  0.10089  0.87075  0.13482  1.0000
  O   O45       1.0  0.97903  0.85119  0.06821  1.0000
  H   H48       1.0  0.01880  0.85880  0.08890  1.0000
  O   O46       1.0  0.90977  0.96070  0.07140  1.0000
  O   O47       1.0  0.13365  0.22707  0.43494  1.0000
  O   O48       1.0  0.22235  0.36919  0.54582  1.0000
  C   C93       1.0  0.12995  0.97340  0.18180  1.0000
  C   C94       1.0  0.96490  0.95110  0.09200  1.0000
  C   C95       1.0  0.08704  0.06030  0.18270  1.0000
  C   C96       1.0  0.01821  0.05150  0.14160  1.0000
  Co  Co1       1.0  0.27795  0.69302  0.21002  1.0000
  Co  Co2       1.0  0.77795  0.19302  0.21002  1.0000
  Co  Co3       1.0  0.72205  0.69302  0.28998  1.0000
  Co  Co4       1.0  0.22205  0.19302  0.28998  1.0000
  Co  Co5       1.0  0.72205  0.30698  0.78998  1.0000
  Co  Co6       1.0  0.22205  0.80698  0.78998  1.0000
  Co  Co7       1.0  0.27795  0.30698  0.71002  1.0000
  Co  Co8       1.0  0.77795  0.80698  0.71002  1.0000
