data_image0
_chemical_formula_structural       C7HCHCHCHC2N2HO3HO3C7HCHCHCHC2N2HO3HO3C7HCHCHCHC2N2HO3HO5HO3C7HCHCHCHC2N2HOC7HCHCHCHC2N2HO3HO3C7HCHCHCHC2N2HO3HO3C7HCHCHCHC2N2HO3HO3C3HCHCHCHC2N2HO3HO3C4Zn8
_chemical_formula_sum              "C96 H48 N16 O48 Zn8"
_cell_length_a       25.951
_cell_length_b       11.04
_cell_length_c       16.803
_cell_angle_alpha    90
_cell_angle_beta     137.16
_cell_angle_gamma    90

_space_group_name_H-M_alt    "P 1"
_space_group_IT_number       1

loop_
  _space_group_symop_operation_xyz
  'x, y, z'

loop_
  _atom_site_type_symbol
  _atom_site_label
  _atom_site_symmetry_multiplicity
  _atom_site_fract_x
  _atom_site_fract_y
  _atom_site_fract_z
  _atom_site_occupancy
  C   C1        1.0  0.63068  0.52790  0.68110  1.0000
  C   C2        1.0  0.46516  0.55230  0.59120  1.0000
  C   C3        1.0  0.58744  0.44200  0.68200  1.0000
  C   C4        1.0  0.51851  0.45130  0.64120  1.0000
  C   C5        1.0  0.56400  0.26690  0.70710  1.0000
  C   C6        1.0  0.56620  0.13690  0.72920  1.0000
  C   C7        1.0  0.52196  0.05860  0.63440  1.0000
  H   H1        1.0  0.49010  0.09200  0.56000  1.0000
  C   C8        1.0  0.52439  0.93580  0.65090  1.0000
  H   H2        1.0  0.49340  0.88000  0.58200  1.0000
  C   C9        1.0  0.57097  0.88960  0.76170  1.0000
  H   H3        1.0  0.57140  0.80400  0.76900  1.0000
  C   C10       1.0  0.61516  0.96610  0.85670  1.0000
  H   H4        1.0  0.64490  0.93900  0.93100  1.0000
  C   C11       1.0  0.61393  0.09070  0.84300  1.0000
  C   C12       1.0  0.65951  0.17300  0.94740  1.0000
  N   N1        1.0  0.61521  0.32698  0.72354  1.0000
  N   N2        1.0  0.50468  0.33990  0.65756  1.0000
  H   H5        1.0  0.46540  0.31900  0.63700  1.0000
  O   O1        1.0  0.69255  0.49268  0.72407  1.0000
  O   O2        1.0  0.60137  0.63132  0.63393  1.0000
  O   O3        1.0  0.47969  0.65132  0.56772  1.0000
  H   H6        1.0  0.52290  0.64900  0.58600  1.0000
  O   O4        1.0  0.40987  0.54240  0.57090  1.0000
  O   O5        1.0  0.63334  0.27494  0.93400  1.0000
  O   O6        1.0  0.72196  0.13175  0.04439  1.0000
  C   C13       1.0  0.13068  0.02790  0.68110  1.0000
  C   C14       1.0  0.96516  0.05230  0.59120  1.0000
  C   C15       1.0  0.08744  0.94200  0.68200  1.0000
  C   C16       1.0  0.01851  0.95130  0.64120  1.0000
  C   C17       1.0  0.06400  0.76690  0.70710  1.0000
  C   C18       1.0  0.06620  0.63690  0.72920  1.0000
  C   C19       1.0  0.02196  0.55860  0.63440  1.0000
  H   H7        1.0  0.99010  0.59200  0.56000  1.0000
  C   C20       1.0  0.02439  0.43580  0.65090  1.0000
  H   H8        1.0  0.99340  0.38000  0.58200  1.0000
  C   C21       1.0  0.07097  0.38960  0.76170  1.0000
  H   H9        1.0  0.07140  0.30400  0.76900  1.0000
  C   C22       1.0  0.11516  0.46610  0.85670  1.0000
  H   H10       1.0  0.14490  0.43900  0.93100  1.0000
  C   C23       1.0  0.11393  0.59070  0.84300  1.0000
  C   C24       1.0  0.15951  0.67300  0.94740  1.0000
  N   N3        1.0  0.11521  0.82698  0.72354  1.0000
  N   N4        1.0  0.00468  0.83990  0.65756  1.0000
  H   H11       1.0  0.96540  0.81900  0.63700  1.0000
  O   O7        1.0  0.19255  0.99268  0.72407  1.0000
  O   O8        1.0  0.10137  0.13132  0.63393  1.0000
  O   O9        1.0  0.97969  0.15132  0.56772  1.0000
  H   H12       1.0  0.02290  0.14900  0.58600  1.0000
  O   O10       1.0  0.90987  0.04240  0.57090  1.0000
  O   O11       1.0  0.13334  0.77494  0.93400  1.0000
  O   O12       1.0  0.22196  0.63175  0.04439  1.0000
  C   C25       1.0  0.36932  0.52790  0.81890  1.0000
  C   C26       1.0  0.53484  0.55230  0.90880  1.0000
  C   C27       1.0  0.41256  0.44200  0.81800  1.0000
  C   C28       1.0  0.48149  0.45130  0.85880  1.0000
  C   C29       1.0  0.43600  0.26690  0.79290  1.0000
  C   C30       1.0  0.43380  0.13690  0.77080  1.0000
  C   C31       1.0  0.47804  0.05860  0.86560  1.0000
  H   H13       1.0  0.50990  0.09200  0.94000  1.0000
  C   C32       1.0  0.47561  0.93580  0.84910  1.0000
  H   H14       1.0  0.50660  0.88000  0.91800  1.0000
  C   C33       1.0  0.42903  0.88960  0.73830  1.0000
  H   H15       1.0  0.42860  0.80400  0.73100  1.0000
  C   C34       1.0  0.38484  0.96610  0.64330  1.0000
  H   H16       1.0  0.35510  0.93900  0.56900  1.0000
  C   C35       1.0  0.38607  0.09070  0.65700  1.0000
  C   C36       1.0  0.34049  0.17300  0.55260  1.0000
  N   N5        1.0  0.38479  0.32698  0.77646  1.0000
  N   N6        1.0  0.49532  0.33990  0.84244  1.0000
  H   H17       1.0  0.53460  0.31900  0.86300  1.0000
  O   O13       1.0  0.30745  0.49268  0.77593  1.0000
  O   O14       1.0  0.39863  0.63132  0.86607  1.0000
  O   O15       1.0  0.52031  0.65132  0.93228  1.0000
  H   H18       1.0  0.47710  0.64900  0.91400  1.0000
  O   O16       1.0  0.59013  0.54240  0.92910  1.0000
  O   O17       1.0  0.36666  0.27494  0.56600  1.0000
  O   O18       1.0  0.27804  0.13175  0.45561  1.0000
  O   O19       1.0  0.89863  0.13132  0.86607  1.0000
  O   O20       1.0  0.02031  0.15132  0.93228  1.0000
  H   H19       1.0  0.97710  0.14900  0.91400  1.0000
  O   O21       1.0  0.09013  0.04240  0.92910  1.0000
  O   O22       1.0  0.86666  0.77494  0.56600  1.0000
  O   O23       1.0  0.77804  0.63175  0.45561  1.0000
  C   C37       1.0  0.86932  0.02790  0.81890  1.0000
  C   C38       1.0  0.03484  0.05230  0.90880  1.0000
  C   C39       1.0  0.91256  0.94200  0.81800  1.0000
  C   C40       1.0  0.98149  0.95130  0.85880  1.0000
  C   C41       1.0  0.93600  0.76690  0.79290  1.0000
  C   C42       1.0  0.93380  0.63690  0.77080  1.0000
  C   C43       1.0  0.97804  0.55860  0.86560  1.0000
  H   H20       1.0  0.00990  0.59200  0.94000  1.0000
  C   C44       1.0  0.97561  0.43580  0.84910  1.0000
  H   H21       1.0  0.00660  0.38000  0.91800  1.0000
  C   C45       1.0  0.92903  0.38960  0.73830  1.0000
  H   H22       1.0  0.92860  0.30400  0.73100  1.0000
  C   C46       1.0  0.88484  0.46610  0.64330  1.0000
  H   H23       1.0  0.85510  0.43900  0.56900  1.0000
  C   C47       1.0  0.88607  0.59070  0.65700  1.0000
  C   C48       1.0  0.84049  0.67300  0.55260  1.0000
  N   N7        1.0  0.88479  0.82698  0.77646  1.0000
  N   N8        1.0  0.99532  0.83990  0.84244  1.0000
  H   H24       1.0  0.03460  0.81900  0.86300  1.0000
  O   O24       1.0  0.80745  0.99268  0.77593  1.0000
  C   C49       1.0  0.36932  0.47210  0.31890  1.0000
  C   C50       1.0  0.53484  0.44770  0.40880  1.0000
  C   C51       1.0  0.41256  0.55800  0.31800  1.0000
  C   C52       1.0  0.48149  0.54870  0.35880  1.0000
  C   C53       1.0  0.43600  0.73310  0.29290  1.0000
  C   C54       1.0  0.43380  0.86310  0.27080  1.0000
  C   C55       1.0  0.47804  0.94140  0.36560  1.0000
  H   H25       1.0  0.50990  0.90800  0.44000  1.0000
  C   C56       1.0  0.47561  0.06420  0.34910  1.0000
  H   H26       1.0  0.50660  0.12000  0.41800  1.0000
  C   C57       1.0  0.42903  0.11040  0.23830  1.0000
  H   H27       1.0  0.42860  0.19600  0.23100  1.0000
  C   C58       1.0  0.38484  0.03390  0.14330  1.0000
  H   H28       1.0  0.35510  0.06100  0.06900  1.0000
  C   C59       1.0  0.38607  0.90930  0.15700  1.0000
  C   C60       1.0  0.34049  0.82700  0.05260  1.0000
  N   N9        1.0  0.38479  0.67302  0.27646  1.0000
  N   N10       1.0  0.49532  0.66010  0.34244  1.0000
  H   H29       1.0  0.53460  0.68100  0.36300  1.0000
  O   O25       1.0  0.30745  0.50732  0.27593  1.0000
  O   O26       1.0  0.39863  0.36868  0.36607  1.0000
  O   O27       1.0  0.52031  0.34868  0.43228  1.0000
  H   H30       1.0  0.47710  0.35100  0.41400  1.0000
  O   O28       1.0  0.59013  0.45760  0.42910  1.0000
  O   O29       1.0  0.36666  0.72506  0.06600  1.0000
  O   O30       1.0  0.27804  0.86825  0.95561  1.0000
  C   C61       1.0  0.86932  0.97210  0.31890  1.0000
  C   C62       1.0  0.03484  0.94770  0.40880  1.0000
  C   C63       1.0  0.91256  0.05800  0.31800  1.0000
  C   C64       1.0  0.98149  0.04870  0.35880  1.0000
  C   C65       1.0  0.93600  0.23310  0.29290  1.0000
  C   C66       1.0  0.93380  0.36310  0.27080  1.0000
  C   C67       1.0  0.97804  0.44140  0.36560  1.0000
  H   H31       1.0  0.00990  0.40800  0.44000  1.0000
  C   C68       1.0  0.97561  0.56420  0.34910  1.0000
  H   H32       1.0  0.00660  0.62000  0.41800  1.0000
  C   C69       1.0  0.92903  0.61040  0.23830  1.0000
  H   H33       1.0  0.92860  0.69600  0.23100  1.0000
  C   C70       1.0  0.88484  0.53390  0.14330  1.0000
  H   H34       1.0  0.85510  0.56100  0.06900  1.0000
  C   C71       1.0  0.88607  0.40930  0.15700  1.0000
  C   C72       1.0  0.84049  0.32700  0.05260  1.0000
  N   N11       1.0  0.88479  0.17302  0.27646  1.0000
  N   N12       1.0  0.99532  0.16010  0.34244  1.0000
  H   H35       1.0  0.03460  0.18100  0.36300  1.0000
  O   O31       1.0  0.80745  0.00732  0.27593  1.0000
  O   O32       1.0  0.89863  0.86868  0.36607  1.0000
  O   O33       1.0  0.02031  0.84868  0.43228  1.0000
  H   H36       1.0  0.97710  0.85100  0.41400  1.0000
  O   O34       1.0  0.09013  0.95760  0.42910  1.0000
  O   O35       1.0  0.86666  0.22506  0.06600  1.0000
  O   O36       1.0  0.77804  0.36825  0.95561  1.0000
  C   C73       1.0  0.63068  0.47210  0.18110  1.0000
  C   C74       1.0  0.46516  0.44770  0.09120  1.0000
  C   C75       1.0  0.58744  0.55800  0.18200  1.0000
  C   C76       1.0  0.51851  0.54870  0.14120  1.0000
  C   C77       1.0  0.56400  0.73310  0.20710  1.0000
  C   C78       1.0  0.56620  0.86310  0.22920  1.0000
  C   C79       1.0  0.52196  0.94140  0.13440  1.0000
  H   H37       1.0  0.49010  0.90800  0.06000  1.0000
  C   C80       1.0  0.52439  0.06420  0.15090  1.0000
  H   H38       1.0  0.49340  0.12000  0.08200  1.0000
  C   C81       1.0  0.57097  0.11040  0.26170  1.0000
  H   H39       1.0  0.57140  0.19600  0.26900  1.0000
  C   C82       1.0  0.61516  0.03390  0.35670  1.0000
  H   H40       1.0  0.64490  0.06100  0.43100  1.0000
  C   C83       1.0  0.61393  0.90930  0.34300  1.0000
  C   C84       1.0  0.65951  0.82700  0.44740  1.0000
  N   N13       1.0  0.61521  0.67302  0.22354  1.0000
  N   N14       1.0  0.50468  0.66010  0.15756  1.0000
  H   H41       1.0  0.46540  0.68100  0.13700  1.0000
  O   O37       1.0  0.69255  0.50732  0.22407  1.0000
  O   O38       1.0  0.60137  0.36868  0.13393  1.0000
  O   O39       1.0  0.47969  0.34868  0.06772  1.0000
  H   H42       1.0  0.52290  0.35100  0.08600  1.0000
  O   O40       1.0  0.40987  0.45760  0.07090  1.0000
  O   O41       1.0  0.63334  0.72506  0.43400  1.0000
  O   O42       1.0  0.72196  0.86825  0.54439  1.0000
  C   C85       1.0  0.06400  0.23310  0.20710  1.0000
  C   C86       1.0  0.06620  0.36310  0.22920  1.0000
  C   C87       1.0  0.02196  0.44140  0.13440  1.0000
  H   H43       1.0  0.99010  0.40800  0.06000  1.0000
  C   C88       1.0  0.02439  0.56420  0.15090  1.0000
  H   H44       1.0  0.99340  0.62000  0.08200  1.0000
  C   C89       1.0  0.07097  0.61040  0.26170  1.0000
  H   H45       1.0  0.07140  0.69600  0.26900  1.0000
  C   C90       1.0  0.11516  0.53390  0.35670  1.0000
  H   H46       1.0  0.14490  0.56100  0.43100  1.0000
  C   C91       1.0  0.11393  0.40930  0.34300  1.0000
  C   C92       1.0  0.15951  0.32700  0.44740  1.0000
  N   N15       1.0  0.11521  0.17302  0.22354  1.0000
  N   N16       1.0  0.00468  0.16010  0.15756  1.0000
  H   H47       1.0  0.96540  0.18100  0.13700  1.0000
  O   O43       1.0  0.19255  0.00732  0.22407  1.0000
  O   O44       1.0  0.10137  0.86868  0.13393  1.0000
  O   O45       1.0  0.97969  0.84868  0.06772  1.0000
  H   H48       1.0  0.02290  0.85100  0.08600  1.0000
  O   O46       1.0  0.90987  0.95760  0.07090  1.0000
  O   O47       1.0  0.13334  0.22506  0.43400  1.0000
  O   O48       1.0  0.22196  0.36825  0.54439  1.0000
  C   C93       1.0  0.13068  0.97210  0.18110  1.0000
  C   C94       1.0  0.96516  0.94770  0.09120  1.0000
  C   C95       1.0  0.08744  0.05800  0.18200  1.0000
  C   C96       1.0  0.01851  0.04870  0.14120  1.0000
  Zn  Zn1       1.0  0.72179  0.30231  0.79155  1.0000
  Zn  Zn2       1.0  0.22179  0.80231  0.79155  1.0000
  Zn  Zn3       1.0  0.27821  0.30231  0.70845  1.0000
  Zn  Zn4       1.0  0.77821  0.80231  0.70845  1.0000
  Zn  Zn5       1.0  0.27821  0.69769  0.20845  1.0000
  Zn  Zn6       1.0  0.77821  0.19769  0.20845  1.0000
  Zn  Zn7       1.0  0.72179  0.69769  0.29155  1.0000
  Zn  Zn8       1.0  0.22179  0.19769  0.29155  1.0000
