data_image0
_chemical_formula_structural       C2HCHCHC2HCHCHCHCHCHN5CHCHCHCHC2HCHC2HCHCHN10C2HCHCHC2HCHCHCHCHCHN5CHCHCHCHC2HCHC2HCHCHO4C4HCO4C4HCO4C3HC2O4C3HC2Co4C2HCHCHC2HCHCHCHCHCHN5CHCHCHCHC2HCHC2HCHCHN10C2HCHCHC2HCHCHCHCHCHN5CHCHCHCHC2HCHC2HCHCHO4C4HCO4C4HCO4C3HC2O4C3HC2Co4
_chemical_formula_sum              "C128 H80 N40 O32 Co8"
_cell_length_a       14.2268
_cell_length_b       13.8053
_cell_length_c       18.4479
_cell_angle_alpha    106.665
_cell_angle_beta     100.591
_cell_angle_gamma    97.996

_space_group_name_H-M_alt    "P 1"
_space_group_IT_number       1

loop_
  _space_group_symop_operation_xyz
  'x, y, z'

loop_
  _atom_site_type_symbol
  _atom_site_label
  _atom_site_symmetry_multiplicity
  _atom_site_fract_x
  _atom_site_fract_y
  _atom_site_fract_z
  _atom_site_occupancy
  C   C1        1.0  0.13175  0.11050  0.51950  1.0000
  C   C2        1.0  0.08820  0.87500  0.66220  1.0000
  H   H1        1.0  0.08665  0.91860  0.71210  1.0000
  C   C3        1.0  0.08790  0.74190  0.56780  1.0000
  H   H2        1.0  0.08440  0.67240  0.53780  1.0000
  C   C4        1.0  0.09625  0.82290  0.53960  1.0000
  H   H3        1.0  0.10245  0.82140  0.48890  1.0000
  C   C5        1.0  0.10610  0.00710  0.59670  1.0000
  C   C6        1.0  0.09815  0.09800  0.66020  1.0000
  H   H4        1.0  0.08410  0.09150  0.70710  1.0000
  C   C7        1.0  0.11150  0.18730  0.64850  1.0000
  H   H5        1.0  0.10625  0.24560  0.68900  1.0000
  C   C8        1.0  0.13250  0.20500  0.58160  1.0000
  H   H6        1.0  0.14595  0.27200  0.57690  1.0000
  C   C9        1.0  0.15235  0.02920  0.39060  1.0000
  H   H7        1.0  0.14840  0.96080  0.39280  1.0000
  C   C10       1.0  0.16260  0.06080  0.32850  1.0000
  H   H8        1.0  0.16665  0.01740  0.27930  1.0000
  C   C11       1.0  0.15765  0.19710  0.42180  1.0000
  H   H9        1.0  0.15775  0.26620  0.45080  1.0000
  N   N1        1.0  0.08525  0.77310  0.64400  1.0000
  N   N2        1.0  0.09375  0.90740  0.60030  1.0000
  N   N3        1.0  0.12075  0.01610  0.52820  1.0000
  N   N4        1.0  0.16610  0.16520  0.34790  1.0000
  N   N5        1.0  0.14890  0.11450  0.44910  1.0000
  C   C12       1.0  0.14540  0.37770  0.15920  1.0000
  H   H10       1.0  0.16895  0.43460  0.20580  1.0000
  C   C13       1.0  0.09140  0.22330  0.07930  1.0000
  H   H11       1.0  0.07020  0.15040  0.05970  1.0000
  C   C14       1.0  0.09265  0.28670  0.03540  1.0000
  H   H12       1.0  0.07315  0.26710  0.98030  1.0000
  C   C15       1.0  0.19560  0.57040  0.12880  1.0000
  H   H13       1.0  0.21780  0.57190  0.18100  1.0000
  C   C16       1.0  0.14690  0.47980  0.07050  1.0000
  C   C17       1.0  0.21040  0.65760  0.10810  1.0000
  H   H14       1.0  0.24435  0.72120  0.14620  1.0000
  C   C18       1.0  0.17615  0.65400  0.03150  1.0000
  H   H15       1.0  0.18335  0.71450  0.01650  1.0000
  C   C19       1.0  0.13160  0.55920  0.97870  1.0000
  C   C20       1.0  0.11705  0.62110  0.86360  1.0000
  H   H16       1.0  0.15275  0.68950  0.89070  1.0000
  C   C21       1.0  0.03565  0.48360  0.77310  1.0000
  H   H17       1.0  0.00235  0.43750  0.72300  1.0000
  C   C22       1.0  0.04705  0.45770  0.83830  1.0000
  H   H18       1.0  0.02420  0.39220  0.84290  1.0000
  N   N6        1.0  0.12580  0.28130  0.15750  1.0000
  N   N7        1.0  0.12840  0.38690  0.08750  1.0000
  N   N8        1.0  0.11555  0.47140  0.99570  1.0000
  N   N9        1.0  0.09930  0.54660  0.89820  1.0000
  N   N10       1.0  0.07820  0.58560  0.78780  1.0000
  N   N11       1.0  0.41475  0.22690  0.35600  1.0000
  N   N12       1.0  0.40625  0.09260  0.39970  1.0000
  N   N13       1.0  0.37925  0.98390  0.47180  1.0000
  N   N14       1.0  0.33390  0.83480  0.65210  1.0000
  N   N15       1.0  0.35110  0.88550  0.55090  1.0000
  C   C23       1.0  0.36825  0.88950  0.48050  1.0000
  C   C24       1.0  0.41180  0.12500  0.33780  1.0000
  H   H19       1.0  0.41335  0.08140  0.28790  1.0000
  C   C25       1.0  0.41210  0.25810  0.43220  1.0000
  H   H20       1.0  0.41560  0.32760  0.46220  1.0000
  C   C26       1.0  0.40375  0.17710  0.46040  1.0000
  H   H21       1.0  0.39755  0.17860  0.51110  1.0000
  C   C27       1.0  0.39390  0.99290  0.40330  1.0000
  C   C28       1.0  0.40185  0.90200  0.33980  1.0000
  H   H22       1.0  0.41590  0.90850  0.29290  1.0000
  C   C29       1.0  0.38850  0.81270  0.35150  1.0000
  H   H23       1.0  0.39375  0.75440  0.31100  1.0000
  C   C30       1.0  0.36750  0.79500  0.41840  1.0000
  H   H24       1.0  0.35405  0.72800  0.42310  1.0000
  C   C31       1.0  0.34765  0.97080  0.60940  1.0000
  H   H25       1.0  0.35160  0.03920  0.60720  1.0000
  C   C32       1.0  0.33740  0.93920  0.67150  1.0000
  H   H26       1.0  0.33335  0.98260  0.72070  1.0000
  C   C33       1.0  0.34235  0.80290  0.57820  1.0000
  H   H27       1.0  0.34225  0.73380  0.54920  1.0000
  N   N16       1.0  0.37420  0.71870  0.84250  1.0000
  N   N17       1.0  0.37160  0.61310  0.91250  1.0000
  N   N18       1.0  0.38445  0.52860  0.00430  1.0000
  N   N19       1.0  0.40070  0.45340  0.10180  1.0000
  N   N20       1.0  0.42180  0.41440  0.21220  1.0000
  C   C34       1.0  0.35460  0.62230  0.84080  1.0000
  H   H28       1.0  0.33105  0.56540  0.79420  1.0000
  C   C35       1.0  0.40860  0.77670  0.92070  1.0000
  H   H29       1.0  0.42980  0.84960  0.94030  1.0000
  C   C36       1.0  0.40735  0.71330  0.96460  1.0000
  H   H30       1.0  0.42685  0.73290  0.01970  1.0000
  C   C37       1.0  0.30440  0.42960  0.87120  1.0000
  H   H31       1.0  0.28220  0.42810  0.81900  1.0000
  C   C38       1.0  0.35310  0.52020  0.92950  1.0000
  C   C39       1.0  0.28960  0.34240  0.89190  1.0000
  H   H32       1.0  0.25565  0.27880  0.85380  1.0000
  C   C40       1.0  0.32385  0.34600  0.96850  1.0000
  H   H33       1.0  0.31665  0.28550  0.98350  1.0000
  C   C41       1.0  0.36840  0.44080  0.02130  1.0000
  C   C42       1.0  0.38295  0.37890  0.13640  1.0000
  H   H34       1.0  0.34725  0.31050  0.10930  1.0000
  C   C43       1.0  0.46435  0.51640  0.22690  1.0000
  H   H35       1.0  0.49765  0.56250  0.27700  1.0000
  C   C44       1.0  0.45295  0.54230  0.16170  1.0000
  H   H36       1.0  0.47580  0.60780  0.15710  1.0000
  O   O1        1.0  0.49990  0.44740  0.38480  1.0000
  O   O2        1.0  0.07490  0.34390  0.31300  1.0000
  O   O3        1.0  0.28395  0.52040  0.31480  1.0000
  O   O4        1.0  0.27960  0.35440  0.30690  1.0000
  C   C45       1.0  0.42340  0.58540  0.62540  1.0000
  C   C46       1.0  0.33235  0.54060  0.56170  1.0000
  C   C47       1.0  0.24040  0.52800  0.57690  1.0000
  C   C48       1.0  0.15815  0.48740  0.51470  1.0000
  H   H37       1.0  0.09495  0.47880  0.52490  1.0000
  C   C49       1.0  0.22565  0.55140  0.65840  1.0000
  O   O5        1.0  0.00010  0.55260  0.61520  1.0000
  O   O6        1.0  0.42510  0.65610  0.68700  1.0000
  O   O7        1.0  0.21605  0.47960  0.68520  1.0000
  O   O8        1.0  0.22040  0.64560  0.69310  1.0000
  C   C50       1.0  0.07660  0.41460  0.37460  1.0000
  C   C51       1.0  0.16765  0.45940  0.43830  1.0000
  C   C52       1.0  0.25960  0.47200  0.42310  1.0000
  C   C53       1.0  0.34185  0.51260  0.48530  1.0000
  H   H38       1.0  0.40505  0.52120  0.47510  1.0000
  C   C54       1.0  0.27435  0.44860  0.34160  1.0000
  O   O9        1.0  0.22175  0.12430  0.19590  1.0000
  O   O10       1.0  0.36570  0.19830  0.18560  1.0000
  O   O11       1.0  0.04345  0.95310  0.09070  1.0000
  O   O12       1.0  0.16850  0.89200  0.13970  1.0000
  C   C55       1.0  0.37195  0.06120  0.90250  1.0000
  C   C56       1.0  0.30960  0.02480  0.95250  1.0000
  C   C57       1.0  0.32715  0.08320  0.02970  1.0000
  H   H39       1.0  0.38080  0.14020  0.05080  1.0000
  C   C58       1.0  0.23180  0.93930  0.92230  1.0000
  C   C59       1.0  0.21455  0.86800  0.84060  1.0000
  O   O13       1.0  0.27825  0.87570  0.80410  1.0000
  O   O14       1.0  0.13430  0.80170  0.81440  1.0000
  O   O15       1.0  0.45655  0.04690  0.90930  1.0000
  O   O16       1.0  0.33150  0.10800  0.86030  1.0000
  C   C60       1.0  0.12805  0.93880  0.09750  1.0000
  C   C61       1.0  0.19040  0.97520  0.04750  1.0000
  C   C62       1.0  0.17285  0.91680  0.97030  1.0000
  H   H40       1.0  0.11920  0.85980  0.94920  1.0000
  C   C63       1.0  0.26820  0.06070  0.07770  1.0000
  C   C64       1.0  0.28545  0.13200  0.15940  1.0000
  Co  Co1       1.0  0.41129  0.32397  0.28483  1.0000
  Co  Co2       1.0  0.34590  0.76604  0.74114  1.0000
  Co  Co3       1.0  0.08871  0.67603  0.71517  1.0000
  Co  Co4       1.0  0.15410  0.23396  0.25886  1.0000
  C   C65       1.0  0.63175  0.11050  0.51950  1.0000
  C   C66       1.0  0.58820  0.87500  0.66220  1.0000
  H   H41       1.0  0.58665  0.91860  0.71210  1.0000
  C   C67       1.0  0.58790  0.74190  0.56780  1.0000
  H   H42       1.0  0.58440  0.67240  0.53780  1.0000
  C   C68       1.0  0.59625  0.82290  0.53960  1.0000
  H   H43       1.0  0.60245  0.82140  0.48890  1.0000
  C   C69       1.0  0.60610  0.00710  0.59670  1.0000
  C   C70       1.0  0.59815  0.09800  0.66020  1.0000
  H   H44       1.0  0.58410  0.09150  0.70710  1.0000
  C   C71       1.0  0.61150  0.18730  0.64850  1.0000
  H   H45       1.0  0.60625  0.24560  0.68900  1.0000
  C   C72       1.0  0.63250  0.20500  0.58160  1.0000
  H   H46       1.0  0.64595  0.27200  0.57690  1.0000
  C   C73       1.0  0.65235  0.02920  0.39060  1.0000
  H   H47       1.0  0.64840  0.96080  0.39280  1.0000
  C   C74       1.0  0.66260  0.06080  0.32850  1.0000
  H   H48       1.0  0.66665  0.01740  0.27930  1.0000
  C   C75       1.0  0.65765  0.19710  0.42180  1.0000
  H   H49       1.0  0.65775  0.26620  0.45080  1.0000
  N   N21       1.0  0.58525  0.77310  0.64400  1.0000
  N   N22       1.0  0.59375  0.90740  0.60030  1.0000
  N   N23       1.0  0.62075  0.01610  0.52820  1.0000
  N   N24       1.0  0.66610  0.16520  0.34790  1.0000
  N   N25       1.0  0.64890  0.11450  0.44910  1.0000
  C   C76       1.0  0.64540  0.37770  0.15920  1.0000
  H   H50       1.0  0.66895  0.43460  0.20580  1.0000
  C   C77       1.0  0.59140  0.22330  0.07930  1.0000
  H   H51       1.0  0.57020  0.15040  0.05970  1.0000
  C   C78       1.0  0.59265  0.28670  0.03540  1.0000
  H   H52       1.0  0.57315  0.26710  0.98030  1.0000
  C   C79       1.0  0.69560  0.57040  0.12880  1.0000
  H   H53       1.0  0.71780  0.57190  0.18100  1.0000
  C   C80       1.0  0.64690  0.47980  0.07050  1.0000
  C   C81       1.0  0.71040  0.65760  0.10810  1.0000
  H   H54       1.0  0.74435  0.72120  0.14620  1.0000
  C   C82       1.0  0.67615  0.65400  0.03150  1.0000
  H   H55       1.0  0.68335  0.71450  0.01650  1.0000
  C   C83       1.0  0.63160  0.55920  0.97870  1.0000
  C   C84       1.0  0.61705  0.62110  0.86360  1.0000
  H   H56       1.0  0.65275  0.68950  0.89070  1.0000
  C   C85       1.0  0.53565  0.48360  0.77310  1.0000
  H   H57       1.0  0.50235  0.43750  0.72300  1.0000
  C   C86       1.0  0.54705  0.45770  0.83830  1.0000
  H   H58       1.0  0.52420  0.39220  0.84290  1.0000
  N   N26       1.0  0.62580  0.28130  0.15750  1.0000
  N   N27       1.0  0.62840  0.38690  0.08750  1.0000
  N   N28       1.0  0.61555  0.47140  0.99570  1.0000
  N   N29       1.0  0.59930  0.54660  0.89820  1.0000
  N   N30       1.0  0.57820  0.58560  0.78780  1.0000
  N   N31       1.0  0.91475  0.22690  0.35600  1.0000
  N   N32       1.0  0.90625  0.09260  0.39970  1.0000
  N   N33       1.0  0.87925  0.98390  0.47180  1.0000
  N   N34       1.0  0.83390  0.83480  0.65210  1.0000
  N   N35       1.0  0.85110  0.88550  0.55090  1.0000
  C   C87       1.0  0.86825  0.88950  0.48050  1.0000
  C   C88       1.0  0.91180  0.12500  0.33780  1.0000
  H   H59       1.0  0.91335  0.08140  0.28790  1.0000
  C   C89       1.0  0.91210  0.25810  0.43220  1.0000
  H   H60       1.0  0.91560  0.32760  0.46220  1.0000
  C   C90       1.0  0.90375  0.17710  0.46040  1.0000
  H   H61       1.0  0.89755  0.17860  0.51110  1.0000
  C   C91       1.0  0.89390  0.99290  0.40330  1.0000
  C   C92       1.0  0.90185  0.90200  0.33980  1.0000
  H   H62       1.0  0.91590  0.90850  0.29290  1.0000
  C   C93       1.0  0.88850  0.81270  0.35150  1.0000
  H   H63       1.0  0.89375  0.75440  0.31100  1.0000
  C   C94       1.0  0.86750  0.79500  0.41840  1.0000
  H   H64       1.0  0.85405  0.72800  0.42310  1.0000
  C   C95       1.0  0.84765  0.97080  0.60940  1.0000
  H   H65       1.0  0.85160  0.03920  0.60720  1.0000
  C   C96       1.0  0.83740  0.93920  0.67150  1.0000
  H   H66       1.0  0.83335  0.98260  0.72070  1.0000
  C   C97       1.0  0.84235  0.80290  0.57820  1.0000
  H   H67       1.0  0.84225  0.73380  0.54920  1.0000
  N   N36       1.0  0.87420  0.71870  0.84250  1.0000
  N   N37       1.0  0.87160  0.61310  0.91250  1.0000
  N   N38       1.0  0.88445  0.52860  0.00430  1.0000
  N   N39       1.0  0.90070  0.45340  0.10180  1.0000
  N   N40       1.0  0.92180  0.41440  0.21220  1.0000
  C   C98       1.0  0.85460  0.62230  0.84080  1.0000
  H   H68       1.0  0.83105  0.56540  0.79420  1.0000
  C   C99       1.0  0.90860  0.77670  0.92070  1.0000
  H   H69       1.0  0.92980  0.84960  0.94030  1.0000
  C   C100      1.0  0.90735  0.71330  0.96460  1.0000
  H   H70       1.0  0.92685  0.73290  0.01970  1.0000
  C   C101      1.0  0.80440  0.42960  0.87120  1.0000
  H   H71       1.0  0.78220  0.42810  0.81900  1.0000
  C   C102      1.0  0.85310  0.52020  0.92950  1.0000
  C   C103      1.0  0.78960  0.34240  0.89190  1.0000
  H   H72       1.0  0.75565  0.27880  0.85380  1.0000
  C   C104      1.0  0.82385  0.34600  0.96850  1.0000
  H   H73       1.0  0.81665  0.28550  0.98350  1.0000
  C   C105      1.0  0.86840  0.44080  0.02130  1.0000
  C   C106      1.0  0.88295  0.37890  0.13640  1.0000
  H   H74       1.0  0.84725  0.31050  0.10930  1.0000
  C   C107      1.0  0.96435  0.51640  0.22690  1.0000
  H   H75       1.0  0.99765  0.56250  0.27700  1.0000
  C   C108      1.0  0.95295  0.54230  0.16170  1.0000
  H   H76       1.0  0.97580  0.60780  0.15710  1.0000
  O   O17       1.0  0.99990  0.44740  0.38480  1.0000
  O   O18       1.0  0.57490  0.34390  0.31300  1.0000
  O   O19       1.0  0.78395  0.52040  0.31480  1.0000
  O   O20       1.0  0.77960  0.35440  0.30690  1.0000
  C   C109      1.0  0.92340  0.58540  0.62540  1.0000
  C   C110      1.0  0.83235  0.54060  0.56170  1.0000
  C   C111      1.0  0.74040  0.52800  0.57690  1.0000
  C   C112      1.0  0.65815  0.48740  0.51470  1.0000
  H   H77       1.0  0.59495  0.47880  0.52490  1.0000
  C   C113      1.0  0.72565  0.55140  0.65840  1.0000
  O   O21       1.0  0.50010  0.55260  0.61520  1.0000
  O   O22       1.0  0.92510  0.65610  0.68700  1.0000
  O   O23       1.0  0.71605  0.47960  0.68520  1.0000
  O   O24       1.0  0.72040  0.64560  0.69310  1.0000
  C   C114      1.0  0.57660  0.41460  0.37460  1.0000
  C   C115      1.0  0.66765  0.45940  0.43830  1.0000
  C   C116      1.0  0.75960  0.47200  0.42310  1.0000
  C   C117      1.0  0.84185  0.51260  0.48530  1.0000
  H   H78       1.0  0.90505  0.52120  0.47510  1.0000
  C   C118      1.0  0.77435  0.44860  0.34160  1.0000
  O   O25       1.0  0.72175  0.12430  0.19590  1.0000
  O   O26       1.0  0.86570  0.19830  0.18560  1.0000
  O   O27       1.0  0.54345  0.95310  0.09070  1.0000
  O   O28       1.0  0.66850  0.89200  0.13970  1.0000
  C   C119      1.0  0.87195  0.06120  0.90250  1.0000
  C   C120      1.0  0.80960  0.02480  0.95250  1.0000
  C   C121      1.0  0.82715  0.08320  0.02970  1.0000
  H   H79       1.0  0.88080  0.14020  0.05080  1.0000
  C   C122      1.0  0.73180  0.93930  0.92230  1.0000
  C   C123      1.0  0.71455  0.86800  0.84060  1.0000
  O   O29       1.0  0.77825  0.87570  0.80410  1.0000
  O   O30       1.0  0.63430  0.80170  0.81440  1.0000
  O   O31       1.0  0.95655  0.04690  0.90930  1.0000
  O   O32       1.0  0.83150  0.10800  0.86030  1.0000
  C   C124      1.0  0.62805  0.93880  0.09750  1.0000
  C   C125      1.0  0.69040  0.97520  0.04750  1.0000
  C   C126      1.0  0.67285  0.91680  0.97030  1.0000
  H   H80       1.0  0.61920  0.85980  0.94920  1.0000
  C   C127      1.0  0.76820  0.06070  0.07770  1.0000
  C   C128      1.0  0.78545  0.13200  0.15940  1.0000
  Co  Co5       1.0  0.91129  0.32397  0.28483  1.0000
  Co  Co6       1.0  0.84589  0.76604  0.74114  1.0000
  Co  Co7       1.0  0.58871  0.67603  0.71517  1.0000
  Co  Co8       1.0  0.65411  0.23396  0.25886  1.0000
