data_image0
_chemical_formula_structural       O4N2C6HC2HC3HC3HC2HNCHOCHOCHC2HCHCHCH2O4N2C6HC2HC3HC3HC2HNCHOCHOCHC2HCHCHCH2O2N2C6HC2HC3HC3HC2HNCHOCHOCHC2HCHCHCH2O6N2C6HC2HC3HC3HC2HNCHOCHOCHC2HCHCHCH2OSO7SO2SO4SO2Mn8
_chemical_formula_sum              "O40 N12 C96 H52 S4 Mn8"
_cell_length_a       19.4802
_cell_length_b       13.7611
_cell_length_c       9.3361
_cell_angle_alpha    90
_cell_angle_beta     90
_cell_angle_gamma    90

_space_group_name_H-M_alt    "P 1"
_space_group_IT_number       1

loop_
  _space_group_symop_operation_xyz
  'x, y, z'

loop_
  _atom_site_type_symbol
  _atom_site_label
  _atom_site_symmetry_multiplicity
  _atom_site_fract_x
  _atom_site_fract_y
  _atom_site_fract_z
  _atom_site_occupancy
  O   O1        1.0  0.72224  0.56080  0.00070  1.0000
  O   O2        1.0  0.72070  0.93911  0.31260  1.0000
  O   O3        1.0  0.75063  0.99835  0.10220  1.0000
  O   O4        1.0  0.00723  0.68490  0.12250  1.0000
  N   N1        1.0  0.41097  0.93840  0.92460  1.0000
  N   N2        1.0  0.53314  0.74110  0.14660  1.0000
  C   C1        1.0  0.76014  0.56630  0.10870  1.0000
  C   C2        1.0  0.79168  0.66400  0.13920  1.0000
  C   C3        1.0  0.75279  0.74990  0.15030  1.0000
  C   C4        1.0  0.78754  0.83830  0.16300  1.0000
  C   C5        1.0  0.75020  0.93270  0.19330  1.0000
  C   C6        1.0  0.85882  0.84210  0.15450  1.0000
  H   H1        1.0  0.88110  0.90190  0.15600  1.0000
  C   C7        1.0  0.89674  0.75690  0.14390  1.0000
  C   C8        1.0  0.86295  0.66790  0.13840  1.0000
  H   H2        1.0  0.88820  0.61070  0.13420  1.0000
  C   C9        1.0  0.97347  0.75800  0.13450  1.0000
  C   C10       1.0  0.67659  0.74740  0.15060  1.0000
  C   C11       1.0  0.63880  0.81090  0.06460  1.0000
  H   H3        1.0  0.66110  0.85440  0.00430  1.0000
  C   C12       1.0  0.56715  0.80860  0.07000  1.0000
  C   C13       1.0  0.56983  0.67670  0.22370  1.0000
  C   C14       1.0  0.64108  0.68060  0.23340  1.0000
  H   H4        1.0  0.66450  0.63890  0.29460  1.0000
  C   C15       1.0  0.52989  0.59830  0.29490  1.0000
  C   C16       1.0  0.45886  0.60640  0.30320  1.0000
  H   H5        1.0  0.43820  0.66220  0.26730  1.0000
  N   N3        1.0  0.41892  0.53740  0.36040  1.0000
  C   C17       1.0  0.44850  0.45770  0.41400  1.0000
  H   H6        1.0  0.42080  0.40960  0.45370  1.0000
  O   O5        1.0  0.77646  0.49540  0.18580  1.0000
  C   C18       1.0  0.51890  0.44420  0.41230  1.0000
  H   H7        1.0  0.53840  0.38870  0.45200  1.0000
  O   O6        1.0  0.99861  0.84560  0.13690  1.0000
  C   C19       1.0  0.55960  0.51520  0.35040  1.0000
  H   H8        1.0  0.60700  0.50690  0.34620  1.0000
  C   C20       1.0  0.52461  0.88120  0.99240  1.0000
  C   C21       1.0  0.45330  0.87270  0.98930  1.0000
  H   H9        1.0  0.43340  0.81920  0.03390  1.0000
  C   C22       1.0  0.44070  0.01440  0.85930  1.0000
  H   H10       1.0  0.41280  0.05970  0.81380  1.0000
  C   C23       1.0  0.51040  0.02830  0.85670  1.0000
  H   H11       1.0  0.52900  0.08180  0.80990  1.0000
  C   C24       1.0  0.55285  0.96180  0.92440  1.0000
  H   H12       1.0  0.60010  0.97110  0.92440  1.0000
  H   H13       1.0  0.03980  0.85560  0.10940  1.0000
  O   O7        1.0  0.27776  0.43920  0.50070  1.0000
  O   O8        1.0  0.27930  0.06089  0.81260  1.0000
  O   O9        1.0  0.24937  0.00165  0.60220  1.0000
  O   O10       1.0  0.99277  0.31510  0.62250  1.0000
  N   N4        1.0  0.58903  0.06160  0.42460  1.0000
  N   N5        1.0  0.46686  0.25890  0.64660  1.0000
  C   C25       1.0  0.23986  0.43370  0.60870  1.0000
  C   C26       1.0  0.20832  0.33600  0.63920  1.0000
  C   C27       1.0  0.24721  0.25010  0.65030  1.0000
  C   C28       1.0  0.21246  0.16170  0.66300  1.0000
  C   C29       1.0  0.24980  0.06730  0.69330  1.0000
  C   C30       1.0  0.14118  0.15790  0.65450  1.0000
  H   H14       1.0  0.11890  0.09810  0.65600  1.0000
  C   C31       1.0  0.10326  0.24310  0.64390  1.0000
  C   C32       1.0  0.13705  0.33210  0.63840  1.0000
  H   H15       1.0  0.11180  0.38930  0.63420  1.0000
  C   C33       1.0  0.02653  0.24200  0.63450  1.0000
  C   C34       1.0  0.32341  0.25260  0.65060  1.0000
  C   C35       1.0  0.36120  0.18910  0.56460  1.0000
  H   H16       1.0  0.33890  0.14560  0.50430  1.0000
  C   C36       1.0  0.43285  0.19140  0.57000  1.0000
  C   C37       1.0  0.43017  0.32330  0.72370  1.0000
  C   C38       1.0  0.35892  0.31940  0.73340  1.0000
  H   H17       1.0  0.33550  0.36110  0.79460  1.0000
  C   C39       1.0  0.47011  0.40170  0.79490  1.0000
  C   C40       1.0  0.54114  0.39360  0.80320  1.0000
  H   H18       1.0  0.56180  0.33780  0.76730  1.0000
  N   N6        1.0  0.58108  0.46260  0.86040  1.0000
  C   C41       1.0  0.55150  0.54230  0.91400  1.0000
  H   H19       1.0  0.57920  0.59040  0.95370  1.0000
  O   O11       1.0  0.22354  0.50460  0.68580  1.0000
  C   C42       1.0  0.48110  0.55580  0.91230  1.0000
  H   H20       1.0  0.46160  0.61130  0.95200  1.0000
  O   O12       1.0  0.00139  0.15440  0.63690  1.0000
  C   C43       1.0  0.44040  0.48480  0.85040  1.0000
  H   H21       1.0  0.39300  0.49310  0.84620  1.0000
  C   C44       1.0  0.47539  0.11880  0.49240  1.0000
  C   C45       1.0  0.54670  0.12730  0.48930  1.0000
  H   H22       1.0  0.56660  0.18080  0.53390  1.0000
  C   C46       1.0  0.55930  0.98560  0.35930  1.0000
  H   H23       1.0  0.58720  0.94030  0.31380  1.0000
  C   C47       1.0  0.48960  0.97170  0.35670  1.0000
  H   H24       1.0  0.47100  0.91820  0.30990  1.0000
  C   C48       1.0  0.44715  0.03820  0.42440  1.0000
  H   H25       1.0  0.39990  0.02890  0.42440  1.0000
  H   H26       1.0  0.96020  0.14440  0.60940  1.0000
  O   O13       1.0  0.25063  0.00165  0.10220  1.0000
  O   O14       1.0  0.50723  0.31510  0.12250  1.0000
  N   N7        1.0  0.91097  0.06160  0.92460  1.0000
  N   N8        1.0  0.03314  0.25890  0.14660  1.0000
  C   C49       1.0  0.26014  0.43370  0.10870  1.0000
  C   C50       1.0  0.29168  0.33600  0.13920  1.0000
  C   C51       1.0  0.25279  0.25010  0.15030  1.0000
  C   C52       1.0  0.28754  0.16170  0.16300  1.0000
  C   C53       1.0  0.25020  0.06730  0.19330  1.0000
  C   C54       1.0  0.35882  0.15790  0.15450  1.0000
  H   H27       1.0  0.38110  0.09810  0.15600  1.0000
  C   C55       1.0  0.39674  0.24310  0.14390  1.0000
  C   C56       1.0  0.36295  0.33210  0.13840  1.0000
  H   H28       1.0  0.38820  0.38930  0.13420  1.0000
  C   C57       1.0  0.47347  0.24200  0.13450  1.0000
  C   C58       1.0  0.17659  0.25260  0.15060  1.0000
  C   C59       1.0  0.13880  0.18910  0.06460  1.0000
  H   H29       1.0  0.16110  0.14560  0.00430  1.0000
  C   C60       1.0  0.06715  0.19140  0.07000  1.0000
  C   C61       1.0  0.06983  0.32330  0.22370  1.0000
  C   C62       1.0  0.14108  0.31940  0.23340  1.0000
  H   H30       1.0  0.16450  0.36110  0.29460  1.0000
  C   C63       1.0  0.02989  0.40170  0.29490  1.0000
  C   C64       1.0  0.95886  0.39360  0.30320  1.0000
  H   H31       1.0  0.93820  0.33780  0.26730  1.0000
  N   N9        1.0  0.91892  0.46260  0.36040  1.0000
  C   C65       1.0  0.94850  0.54230  0.41400  1.0000
  H   H32       1.0  0.92080  0.59040  0.45370  1.0000
  O   O15       1.0  0.27646  0.50460  0.18580  1.0000
  C   C66       1.0  0.01890  0.55580  0.41230  1.0000
  H   H33       1.0  0.03840  0.61130  0.45200  1.0000
  O   O16       1.0  0.49861  0.15440  0.13690  1.0000
  C   C67       1.0  0.05960  0.48480  0.35040  1.0000
  H   H34       1.0  0.10700  0.49310  0.34620  1.0000
  C   C68       1.0  0.02461  0.11880  0.99240  1.0000
  C   C69       1.0  0.95330  0.12730  0.98930  1.0000
  H   H35       1.0  0.93340  0.18080  0.03390  1.0000
  C   C70       1.0  0.94070  0.98560  0.85930  1.0000
  H   H36       1.0  0.91280  0.94030  0.81380  1.0000
  C   C71       1.0  0.01040  0.97170  0.85670  1.0000
  H   H37       1.0  0.02900  0.91820  0.80990  1.0000
  C   C72       1.0  0.05285  0.03820  0.92440  1.0000
  H   H38       1.0  0.10010  0.02890  0.92440  1.0000
  H   H39       1.0  0.53980  0.14440  0.10940  1.0000
  O   O17       1.0  0.22224  0.43920  0.00070  1.0000
  O   O18       1.0  0.22070  0.06089  0.31260  1.0000
  O   O19       1.0  0.77776  0.56080  0.50070  1.0000
  O   O20       1.0  0.77930  0.93911  0.81260  1.0000
  O   O21       1.0  0.74937  0.99835  0.60220  1.0000
  O   O22       1.0  0.49277  0.68490  0.62250  1.0000
  N   N10       1.0  0.08903  0.93840  0.42460  1.0000
  N   N11       1.0  0.96686  0.74110  0.64660  1.0000
  C   C73       1.0  0.73986  0.56630  0.60870  1.0000
  C   C74       1.0  0.70832  0.66400  0.63920  1.0000
  C   C75       1.0  0.74721  0.74990  0.65030  1.0000
  C   C76       1.0  0.71246  0.83830  0.66300  1.0000
  C   C77       1.0  0.74980  0.93270  0.69330  1.0000
  C   C78       1.0  0.64118  0.84210  0.65450  1.0000
  H   H40       1.0  0.61890  0.90190  0.65600  1.0000
  C   C79       1.0  0.60326  0.75690  0.64390  1.0000
  C   C80       1.0  0.63705  0.66790  0.63840  1.0000
  H   H41       1.0  0.61180  0.61070  0.63420  1.0000
  C   C81       1.0  0.52653  0.75800  0.63450  1.0000
  C   C82       1.0  0.82341  0.74740  0.65060  1.0000
  C   C83       1.0  0.86120  0.81090  0.56460  1.0000
  H   H42       1.0  0.83890  0.85440  0.50430  1.0000
  C   C84       1.0  0.93285  0.80860  0.57000  1.0000
  C   C85       1.0  0.93017  0.67670  0.72370  1.0000
  C   C86       1.0  0.85892  0.68060  0.73340  1.0000
  H   H43       1.0  0.83550  0.63890  0.79460  1.0000
  C   C87       1.0  0.97011  0.59830  0.79490  1.0000
  C   C88       1.0  0.04114  0.60640  0.80320  1.0000
  H   H44       1.0  0.06180  0.66220  0.76730  1.0000
  N   N12       1.0  0.08108  0.53740  0.86040  1.0000
  C   C89       1.0  0.05150  0.45770  0.91400  1.0000
  H   H45       1.0  0.07920  0.40960  0.95370  1.0000
  O   O23       1.0  0.72354  0.49540  0.68580  1.0000
  C   C90       1.0  0.98110  0.44420  0.91230  1.0000
  H   H46       1.0  0.96160  0.38870  0.95200  1.0000
  O   O24       1.0  0.50139  0.84560  0.63690  1.0000
  C   C91       1.0  0.94040  0.51520  0.85040  1.0000
  H   H47       1.0  0.89300  0.50690  0.84620  1.0000
  C   C92       1.0  0.97539  0.88120  0.49240  1.0000
  C   C93       1.0  0.04670  0.87270  0.48930  1.0000
  H   H48       1.0  0.06660  0.81920  0.53390  1.0000
  C   C94       1.0  0.05930  0.01440  0.35930  1.0000
  H   H49       1.0  0.08720  0.05970  0.31380  1.0000
  C   C95       1.0  0.98960  0.02830  0.35670  1.0000
  H   H50       1.0  0.97100  0.08180  0.30990  1.0000
  C   C96       1.0  0.94715  0.96180  0.42440  1.0000
  H   H51       1.0  0.89990  0.97110  0.42440  1.0000
  H   H52       1.0  0.46020  0.85560  0.60940  1.0000
  O   O25       1.0  0.77548  0.18770  0.78290  1.0000
  S   S1        1.0  0.70390  0.20078  0.73582  1.0000
  O   O26       1.0  0.69981  0.18868  0.57990  1.0000
  O   O27       1.0  0.68144  0.29900  0.77100  1.0000
  O   O28       1.0  0.66290  0.12800  0.80750  1.0000
  O   O29       1.0  0.30019  0.81132  0.07990  1.0000
  O   O30       1.0  0.31856  0.70100  0.27100  1.0000
  O   O31       1.0  0.33710  0.87200  0.30750  1.0000
  O   O32       1.0  0.22452  0.81230  0.28290  1.0000
  S   S2        1.0  0.29610  0.79922  0.23582  1.0000
  O   O33       1.0  0.16290  0.87200  0.80750  1.0000
  O   O34       1.0  0.27548  0.81230  0.78290  1.0000
  S   S3        1.0  0.20390  0.79922  0.73582  1.0000
  O   O35       1.0  0.19981  0.81132  0.57990  1.0000
  O   O36       1.0  0.18144  0.70100  0.77100  1.0000
  O   O37       1.0  0.83710  0.12800  0.30750  1.0000
  O   O38       1.0  0.72452  0.18770  0.28290  1.0000
  S   S4        1.0  0.79610  0.20078  0.23582  1.0000
  O   O39       1.0  0.80019  0.18868  0.07990  1.0000
  O   O40       1.0  0.81856  0.29900  0.27100  1.0000
  Mn  Mn1       1.0  0.30742  0.56757  0.39075  1.0000
  Mn  Mn2       1.0  0.79701  0.06875  0.93094  1.0000
  Mn  Mn3       1.0  0.69258  0.43243  0.89075  1.0000
  Mn  Mn4       1.0  0.70299  0.06875  0.43094  1.0000
  Mn  Mn5       1.0  0.80742  0.43243  0.39075  1.0000
  Mn  Mn6       1.0  0.29701  0.93125  0.93094  1.0000
  Mn  Mn7       1.0  0.19258  0.56757  0.89075  1.0000
  Mn  Mn8       1.0  0.20299  0.93125  0.43094  1.0000
