data_image0
_chemical_formula_structural       C3HC2HCHCHCO5C3HC2HCHCHCO3C3HC2HCHCHCO6C3HC2HCHCHCO2C3HC2HCHCHCO7C3HC2HCHCHCOC3HC2HCHCHCO8C3HC2HCHCHCIn4
_chemical_formula_sum              "C64 H32 O32 In4"
_cell_length_a       11.9876
_cell_length_b       13.0329
_cell_length_c       18.3012
_cell_angle_alpha    90
_cell_angle_beta     125.26
_cell_angle_gamma    90

_space_group_name_H-M_alt    "P 1"
_space_group_IT_number       1

loop_
  _space_group_symop_operation_xyz
  'x, y, z'

loop_
  _atom_site_type_symbol
  _atom_site_label
  _atom_site_symmetry_multiplicity
  _atom_site_fract_x
  _atom_site_fract_y
  _atom_site_fract_z
  _atom_site_occupancy
  C   C1        1.0  0.27630  0.46770  0.12420  1.0000
  C   C2        1.0  0.29140  0.53600  0.19510  1.0000
  C   C3        1.0  0.41240  0.58950  0.25290  1.0000
  H   H1        1.0  0.48400  0.58490  0.24680  1.0000
  C   C4        1.0  0.42500  0.65030  0.32040  1.0000
  C   C5        1.0  0.31700  0.65790  0.32880  1.0000
  H   H2        1.0  0.32620  0.69790  0.37400  1.0000
  C   C6        1.0  0.19600  0.60600  0.27000  1.0000
  H   H3        1.0  0.12360  0.61190  0.27530  1.0000
  C   C7        1.0  0.18270  0.54510  0.20310  1.0000
  H   H4        1.0  0.10140  0.51040  0.16360  1.0000
  C   C8        1.0  0.55250  0.71000  0.38100  1.0000
  O   O1        1.0  0.17180  0.41170  0.07860  1.0000
  O   O2        1.0  0.36920  0.46530  0.11190  1.0000
  O   O3        1.0  0.56770  0.75440  0.44910  1.0000
  O   O4        1.0  0.64220  0.72000  0.36690  1.0000
  O   O5        1.0  0.92070  0.74900  0.55720  1.0000
  C   C9        1.0  0.22570  0.46490  0.88190  1.0000
  C   C10       1.0  0.20710  0.53380  0.81000  1.0000
  C   C11       1.0  0.08730  0.58900  0.75570  1.0000
  H   H5        1.0  0.01900  0.58540  0.76510  1.0000
  C   C12       1.0  0.06950  0.64990  0.68710  1.0000
  C   C13       1.0  0.17350  0.65500  0.67460  1.0000
  H   H6        1.0  0.16100  0.69440  0.62800  1.0000
  C   C14       1.0  0.29500  0.60260  0.73020  1.0000
  H   H7        1.0  0.36470  0.60830  0.72220  1.0000
  C   C15       1.0  0.31190  0.54120  0.79810  1.0000
  H   H8        1.0  0.39280  0.50510  0.83550  1.0000
  C   C16       1.0  0.94070  0.71010  0.62870  1.0000
  O   O6        1.0  0.13560  0.46310  0.89750  1.0000
  O   O7        1.0  0.33040  0.40900  0.92630  1.0000
  O   O8        1.0  0.85860  0.72090  0.64820  1.0000
  C   C17       1.0  0.72370  0.96770  0.37580  1.0000
  C   C18       1.0  0.70860  0.03600  0.30490  1.0000
  C   C19       1.0  0.58760  0.08950  0.24710  1.0000
  H   H9        1.0  0.51600  0.08490  0.25320  1.0000
  C   C20       1.0  0.57500  0.15030  0.17960  1.0000
  C   C21       1.0  0.68300  0.15790  0.17120  1.0000
  H   H10       1.0  0.67380  0.19790  0.12600  1.0000
  C   C22       1.0  0.80400  0.10600  0.23000  1.0000
  H   H11       1.0  0.87640  0.11190  0.22470  1.0000
  C   C23       1.0  0.81730  0.04510  0.29690  1.0000
  H   H12       1.0  0.89860  0.01040  0.33640  1.0000
  C   C24       1.0  0.44750  0.21000  0.11900  1.0000
  O   O9        1.0  0.82820  0.91170  0.42140  1.0000
  O   O10       1.0  0.63080  0.96530  0.38810  1.0000
  O   O11       1.0  0.43230  0.25440  0.05090  1.0000
  O   O12       1.0  0.35780  0.22000  0.13310  1.0000
  O   O13       1.0  0.14140  0.22090  0.85180  1.0000
  O   O14       1.0  0.07930  0.24900  0.94280  1.0000
  C   C25       1.0  0.77430  0.96490  0.61810  1.0000
  C   C26       1.0  0.79290  0.03380  0.69000  1.0000
  C   C27       1.0  0.91270  0.08900  0.74430  1.0000
  H   H13       1.0  0.98100  0.08540  0.73490  1.0000
  C   C28       1.0  0.93050  0.14990  0.81290  1.0000
  C   C29       1.0  0.82650  0.15500  0.82540  1.0000
  H   H14       1.0  0.83900  0.19440  0.87200  1.0000
  C   C30       1.0  0.70500  0.10260  0.76980  1.0000
  H   H15       1.0  0.63530  0.10830  0.77780  1.0000
  C   C31       1.0  0.68810  0.04120  0.70190  1.0000
  H   H16       1.0  0.60720  0.00510  0.66450  1.0000
  C   C32       1.0  0.05930  0.21010  0.87130  1.0000
  O   O15       1.0  0.86440  0.96310  0.60250  1.0000
  O   O16       1.0  0.66960  0.90900  0.57370  1.0000
  C   C33       1.0  0.72370  0.53230  0.87580  1.0000
  C   C34       1.0  0.70860  0.46400  0.80490  1.0000
  C   C35       1.0  0.58760  0.41050  0.74710  1.0000
  H   H17       1.0  0.51600  0.41510  0.75320  1.0000
  C   C36       1.0  0.57500  0.34970  0.67960  1.0000
  C   C37       1.0  0.68300  0.34210  0.67120  1.0000
  H   H18       1.0  0.67380  0.30210  0.62600  1.0000
  C   C38       1.0  0.80400  0.39400  0.73000  1.0000
  H   H19       1.0  0.87640  0.38810  0.72470  1.0000
  C   C39       1.0  0.81730  0.45490  0.79690  1.0000
  H   H20       1.0  0.89860  0.48960  0.83640  1.0000
  C   C40       1.0  0.44750  0.29000  0.61900  1.0000
  O   O17       1.0  0.82820  0.58830  0.92140  1.0000
  O   O18       1.0  0.63080  0.53470  0.88810  1.0000
  O   O19       1.0  0.43230  0.24560  0.55090  1.0000
  O   O20       1.0  0.35780  0.28000  0.63310  1.0000
  O   O21       1.0  0.66960  0.59100  0.07370  1.0000
  O   O22       1.0  0.14140  0.27910  0.35180  1.0000
  O   O23       1.0  0.07930  0.25100  0.44280  1.0000
  C   C41       1.0  0.77430  0.53510  0.11810  1.0000
  C   C42       1.0  0.79290  0.46620  0.19000  1.0000
  C   C43       1.0  0.91270  0.41100  0.24430  1.0000
  H   H21       1.0  0.98100  0.41460  0.23490  1.0000
  C   C44       1.0  0.93050  0.35010  0.31290  1.0000
  C   C45       1.0  0.82650  0.34500  0.32540  1.0000
  H   H22       1.0  0.83900  0.30560  0.37200  1.0000
  C   C46       1.0  0.70500  0.39740  0.26980  1.0000
  H   H23       1.0  0.63530  0.39170  0.27780  1.0000
  C   C47       1.0  0.68810  0.45880  0.20190  1.0000
  H   H24       1.0  0.60720  0.49490  0.16450  1.0000
  C   C48       1.0  0.05930  0.28990  0.37130  1.0000
  O   O24       1.0  0.86440  0.53690  0.10250  1.0000
  C   C49       1.0  0.27630  0.03230  0.62420  1.0000
  C   C50       1.0  0.29140  0.96400  0.69510  1.0000
  C   C51       1.0  0.41240  0.91050  0.75290  1.0000
  H   H25       1.0  0.48400  0.91510  0.74680  1.0000
  C   C52       1.0  0.42500  0.84970  0.82040  1.0000
  C   C53       1.0  0.31700  0.84210  0.82880  1.0000
  H   H26       1.0  0.32620  0.80210  0.87400  1.0000
  C   C54       1.0  0.19600  0.89400  0.77000  1.0000
  H   H27       1.0  0.12360  0.88810  0.77530  1.0000
  C   C55       1.0  0.18270  0.95490  0.70310  1.0000
  H   H28       1.0  0.10140  0.98960  0.66360  1.0000
  C   C56       1.0  0.55250  0.79000  0.88100  1.0000
  O   O25       1.0  0.17180  0.08830  0.57860  1.0000
  O   O26       1.0  0.36920  0.03470  0.61190  1.0000
  O   O27       1.0  0.56770  0.74560  0.94910  1.0000
  O   O28       1.0  0.64220  0.78000  0.86690  1.0000
  O   O29       1.0  0.13560  0.03690  0.39750  1.0000
  O   O30       1.0  0.33040  0.09100  0.42630  1.0000
  O   O31       1.0  0.85860  0.77910  0.14820  1.0000
  O   O32       1.0  0.92070  0.75100  0.05720  1.0000
  C   C57       1.0  0.22570  0.03510  0.38190  1.0000
  C   C58       1.0  0.20710  0.96620  0.31000  1.0000
  C   C59       1.0  0.08730  0.91100  0.25570  1.0000
  H   H29       1.0  0.01900  0.91460  0.26510  1.0000
  C   C60       1.0  0.06950  0.85010  0.18710  1.0000
  C   C61       1.0  0.17350  0.84500  0.17460  1.0000
  H   H30       1.0  0.16100  0.80560  0.12800  1.0000
  C   C62       1.0  0.29500  0.89740  0.23020  1.0000
  H   H31       1.0  0.36470  0.89170  0.22220  1.0000
  C   C63       1.0  0.31190  0.95880  0.29810  1.0000
  H   H32       1.0  0.39280  0.99490  0.33550  1.0000
  C   C64       1.0  0.94070  0.78990  0.12870  1.0000
  In  In1       1.0  0.25212  0.34414  0.00527  1.0000
  In  In2       1.0  0.74788  0.84414  0.49473  1.0000
  In  In3       1.0  0.74788  0.65586  0.99473  1.0000
  In  In4       1.0  0.25212  0.15586  0.50527  1.0000
