data_image0
_chemical_formula_structural       C3HC2OCHCHCHO3C3HCHCHC2HCO5C3HC2HCHCHCO3C3HCHCHC2HCO5C3HC2HCHCHCO4C3HCHCHC2HCO4C3HC2HCHCHCO5C3HCHCHC2HCO2In4
_chemical_formula_sum              "C64 H32 O32 In4"
_cell_length_a       15.8408
_cell_length_b       16.5349
_cell_length_c       9.9488
_cell_angle_alpha    90
_cell_angle_beta     90
_cell_angle_gamma    90

_space_group_name_H-M_alt    "P 1"
_space_group_IT_number       1

loop_
  _space_group_symop_operation_xyz
  'x, y, z'

loop_
  _atom_site_type_symbol
  _atom_site_label
  _atom_site_symmetry_multiplicity
  _atom_site_fract_x
  _atom_site_fract_y
  _atom_site_fract_z
  _atom_site_occupancy
  C   C1        1.0  0.32770  0.07810  0.38970  1.0000
  C   C2        1.0  0.35810  0.04570  0.52160  1.0000
  C   C3        1.0  0.32920  0.07610  0.64180  1.0000
  H   H1        1.0  0.29030  0.11820  0.64170  1.0000
  C   C4        1.0  0.35760  0.04470  0.76350  1.0000
  C   C5        1.0  0.41790  0.98510  0.76020  1.0000
  O   O1        1.0  0.35070  0.04550  0.00030  1.0000
  C   C6        1.0  0.44670  0.95170  0.65380  1.0000
  H   H2        1.0  0.48510  0.90920  0.65810  1.0000
  C   C7        1.0  0.41600  0.98370  0.52260  1.0000
  H   H3        1.0  0.43590  0.96200  0.44230  1.0000
  C   C8        1.0  0.32710  0.07960  0.89360  1.0000
  H   H4        1.0  0.43950  0.96750  0.84210  1.0000
  O   O2        1.0  0.28380  0.13840  0.38730  1.0000
  O   O3        1.0  0.34980  0.04300  0.28300  1.0000
  O   O4        1.0  0.27990  0.14150  0.89570  1.0000
  C   C9        1.0  0.35900  0.26950  0.14260  1.0000
  C   C10       1.0  0.40170  0.35050  0.17080  1.0000
  C   C11       1.0  0.35430  0.41910  0.19220  1.0000
  H   H5        1.0  0.29560  0.41740  0.19140  1.0000
  C   C12       1.0  0.39850  0.49260  0.21570  1.0000
  H   H6        1.0  0.36850  0.53850  0.24090  1.0000
  C   C13       1.0  0.47720  0.49680  0.20300  1.0000
  H   H7        1.0  0.50340  0.54690  0.21180  1.0000
  C   C14       1.0  0.52820  0.42700  0.17550  1.0000
  C   C15       1.0  0.48880  0.35560  0.15270  1.0000
  H   H8        1.0  0.51940  0.31060  0.12540  1.0000
  C   C16       1.0  0.62220  0.43260  0.15340  1.0000
  O   O5        1.0  0.28150  0.26380  0.13590  1.0000
  O   O6        1.0  0.40240  0.20720  0.13750  1.0000
  O   O7        1.0  0.65630  0.36830  0.14500  1.0000
  O   O8        1.0  0.66180  0.49110  0.11460  1.0000
  O   O9        1.0  0.72010  0.85850  0.39570  1.0000
  C   C17       1.0  0.67230  0.92190  0.88970  1.0000
  C   C18       1.0  0.64190  0.95430  0.02160  1.0000
  C   C19       1.0  0.67080  0.92390  0.14180  1.0000
  H   H9        1.0  0.70970  0.88180  0.14170  1.0000
  C   C20       1.0  0.64240  0.95530  0.26350  1.0000
  C   C21       1.0  0.58210  0.01490  0.26020  1.0000
  H   H10       1.0  0.56050  0.03250  0.34210  1.0000
  C   C22       1.0  0.55330  0.04830  0.15380  1.0000
  H   H11       1.0  0.51490  0.09080  0.15810  1.0000
  C   C23       1.0  0.58400  0.01630  0.02260  1.0000
  H   H12       1.0  0.56410  0.03800  0.94230  1.0000
  C   C24       1.0  0.67290  0.92040  0.39360  1.0000
  O   O10       1.0  0.64930  0.95450  0.50030  1.0000
  O   O11       1.0  0.71620  0.86160  0.88730  1.0000
  O   O12       1.0  0.65020  0.95700  0.78300  1.0000
  C   C25       1.0  0.64100  0.73050  0.64260  1.0000
  C   C26       1.0  0.59830  0.64950  0.67080  1.0000
  C   C27       1.0  0.64570  0.58090  0.69220  1.0000
  H   H13       1.0  0.70440  0.58260  0.69140  1.0000
  C   C28       1.0  0.60150  0.50740  0.71570  1.0000
  H   H14       1.0  0.63150  0.46150  0.74090  1.0000
  C   C29       1.0  0.52280  0.50320  0.70300  1.0000
  H   H15       1.0  0.49660  0.45310  0.71180  1.0000
  C   C30       1.0  0.47180  0.57300  0.67550  1.0000
  C   C31       1.0  0.51120  0.64440  0.65270  1.0000
  H   H16       1.0  0.48060  0.68940  0.62540  1.0000
  C   C32       1.0  0.37780  0.56740  0.65340  1.0000
  O   O13       1.0  0.71850  0.73620  0.63590  1.0000
  O   O14       1.0  0.59760  0.79280  0.63750  1.0000
  O   O15       1.0  0.34370  0.63170  0.64500  1.0000
  O   O16       1.0  0.33820  0.50890  0.61460  1.0000
  O   O17       1.0  0.77990  0.35850  0.89570  1.0000
  C   C33       1.0  0.82770  0.42190  0.38970  1.0000
  C   C34       1.0  0.85810  0.45430  0.52160  1.0000
  C   C35       1.0  0.82920  0.42390  0.64180  1.0000
  H   H17       1.0  0.79030  0.38180  0.64170  1.0000
  C   C36       1.0  0.85760  0.45530  0.76350  1.0000
  C   C37       1.0  0.91790  0.51490  0.76020  1.0000
  H   H18       1.0  0.93950  0.53250  0.84210  1.0000
  C   C38       1.0  0.94670  0.54830  0.65380  1.0000
  H   H19       1.0  0.98510  0.59080  0.65810  1.0000
  C   C39       1.0  0.91600  0.51630  0.52260  1.0000
  H   H20       1.0  0.93590  0.53800  0.44230  1.0000
  C   C40       1.0  0.82710  0.42040  0.89360  1.0000
  O   O18       1.0  0.85070  0.45450  0.00030  1.0000
  O   O19       1.0  0.78380  0.36160  0.38730  1.0000
  O   O20       1.0  0.84980  0.45700  0.28300  1.0000
  O   O21       1.0  0.16180  0.00890  0.11460  1.0000
  C   C41       1.0  0.85900  0.23050  0.14260  1.0000
  C   C42       1.0  0.90170  0.14950  0.17080  1.0000
  C   C43       1.0  0.85430  0.08090  0.19220  1.0000
  H   H21       1.0  0.79560  0.08260  0.19140  1.0000
  C   C44       1.0  0.89850  0.00740  0.21570  1.0000
  H   H22       1.0  0.86850  0.96150  0.24090  1.0000
  C   C45       1.0  0.97720  0.00320  0.20300  1.0000
  H   H23       1.0  0.00340  0.95310  0.21180  1.0000
  C   C46       1.0  0.02820  0.07300  0.17550  1.0000
  C   C47       1.0  0.98880  0.14440  0.15270  1.0000
  H   H24       1.0  0.01940  0.18940  0.12540  1.0000
  C   C48       1.0  0.12220  0.06740  0.15340  1.0000
  O   O22       1.0  0.78150  0.23620  0.13590  1.0000
  O   O23       1.0  0.90240  0.29280  0.13750  1.0000
  O   O24       1.0  0.15630  0.13170  0.14500  1.0000
  O   O25       1.0  0.22010  0.64150  0.39570  1.0000
  C   C49       1.0  0.17230  0.57810  0.88970  1.0000
  C   C50       1.0  0.14190  0.54570  0.02160  1.0000
  C   C51       1.0  0.17080  0.57610  0.14180  1.0000
  H   H25       1.0  0.20970  0.61820  0.14170  1.0000
  C   C52       1.0  0.14240  0.54470  0.26350  1.0000
  C   C53       1.0  0.08210  0.48510  0.26020  1.0000
  H   H26       1.0  0.06050  0.46750  0.34210  1.0000
  C   C54       1.0  0.05330  0.45170  0.15380  1.0000
  H   H27       1.0  0.01490  0.40920  0.15810  1.0000
  C   C55       1.0  0.08400  0.48370  0.02260  1.0000
  H   H28       1.0  0.06410  0.46200  0.94230  1.0000
  C   C56       1.0  0.17290  0.57960  0.39360  1.0000
  O   O26       1.0  0.14930  0.54550  0.50030  1.0000
  O   O27       1.0  0.21620  0.63840  0.88730  1.0000
  O   O28       1.0  0.15020  0.54300  0.78300  1.0000
  O   O29       1.0  0.84370  0.86830  0.64500  1.0000
  O   O30       1.0  0.83820  0.99110  0.61460  1.0000
  C   C57       1.0  0.14100  0.76950  0.64260  1.0000
  C   C58       1.0  0.09830  0.85050  0.67080  1.0000
  C   C59       1.0  0.14570  0.91910  0.69220  1.0000
  H   H29       1.0  0.20440  0.91740  0.69140  1.0000
  C   C60       1.0  0.10150  0.99260  0.71570  1.0000
  H   H30       1.0  0.13150  0.03850  0.74090  1.0000
  C   C61       1.0  0.02280  0.99680  0.70300  1.0000
  H   H31       1.0  0.99660  0.04690  0.71180  1.0000
  C   C62       1.0  0.97180  0.92700  0.67550  1.0000
  C   C63       1.0  0.01120  0.85560  0.65270  1.0000
  H   H32       1.0  0.98060  0.81060  0.62540  1.0000
  C   C64       1.0  0.87780  0.93260  0.65340  1.0000
  O   O31       1.0  0.21850  0.76380  0.63590  1.0000
  O   O32       1.0  0.09760  0.70720  0.63750  1.0000
  In  In1       1.0  0.28902  0.12699  0.14330  1.0000
  In  In2       1.0  0.71098  0.87301  0.64330  1.0000
  In  In3       1.0  0.78902  0.37301  0.14330  1.0000
  In  In4       1.0  0.21098  0.62699  0.64330  1.0000
