data_image0
_chemical_formula_structural       O4N4C3HCHCH2CHCHC2O4N4C3HCHCH2CHCHC2O4N4C3HCHCH2CHCHC2O4N4C3HCHCH2CHCHC2OH2O2HOHCr4O4N4C3HCHCH2CHCHC2O4N4C3HCHCH2CHCHC2O4N4C3HCHCH2CHCHC2O4N4C3HCHCH2CHCHC2OH2O2HOHCr4O4N4C3HCHCH2CHCHC2O4N4C3HCHCH2CHCHC2O4N4C3HCHCH2CHCHC2O4N4C3HCHCH2CHCHC2OH2O2HOHCr4O4N4C3HCHCH2CHCHC2O4N4C3HCHCH2CHCHC2O4N4C3HCHCH2CHCHC2O4N4C3HCHCH2CHCHC2OH2O2HOHCr4
_chemical_formula_sum              "O80 N64 C144 H112 Cr16"
_cell_length_a       14.5162
_cell_length_b       19.176
_cell_length_c       15.8534
_cell_angle_alpha    90
_cell_angle_beta     102.24
_cell_angle_gamma    90

_space_group_name_H-M_alt    "P 1"
_space_group_IT_number       1

loop_
  _space_group_symop_operation_xyz
  'x, y, z'

loop_
  _atom_site_type_symbol
  _atom_site_label
  _atom_site_symmetry_multiplicity
  _atom_site_fract_x
  _atom_site_fract_y
  _atom_site_fract_z
  _atom_site_occupancy
  O   O1        1.0  0.22025  0.21920  0.30430  1.0000
  O   O2        1.0  0.16865  0.10890  0.31530  1.0000
  O   O3        1.0  0.45710  0.91088  0.07420  1.0000
  O   O4        1.0  0.41405  0.92330  0.43050  1.0000
  N   N1        1.0  0.49465  0.13920  0.25155  1.0000
  N   N2        1.0  0.40900  0.16570  0.21460  1.0000
  N   N3        1.0  0.33050  0.08620  0.10660  1.0000
  N   N4        1.0  0.37515  0.02420  0.10555  1.0000
  C   C1        1.0  0.15625  0.17470  0.29575  1.0000
  C   C2        1.0  0.05600  0.19330  0.25760  1.0000
  C   C3        1.0  0.00940  0.25310  0.22425  1.0000
  H   H1        1.0  0.03620  0.29800  0.22130  1.0000
  C   C4        1.0  0.41700  0.23490  0.19635  1.0000
  H   H2        1.0  0.36730  0.26480  0.16925  1.0000
  C   C5        1.0  0.32630  0.12120  0.18730  1.0000
  H   H3        1.0  0.32390  0.08610  0.23250  1.0000
  H   H4        1.0  0.26840  0.14990  0.17935  1.0000
  C   C6        1.0  0.30325  0.11230  0.02595  1.0000
  H   H5        1.0  0.27230  0.15560  0.01095  1.0000
  C   C7        1.0  0.32815  0.06510  0.46955  1.0000
  H   H6        1.0  0.31735  0.06840  0.40845  1.0000
  C   C8        1.0  0.37280  0.01140  0.02210  1.0000
  C   C9        1.0  0.41690  0.94430  0.00480  1.0000
  O   O5        1.0  0.27975  0.71920  0.44570  1.0000
  O   O6        1.0  0.33135  0.60890  0.43470  1.0000
  O   O7        1.0  0.04290  0.41088  0.17580  1.0000
  O   O8        1.0  0.08595  0.42330  0.31950  1.0000
  N   N5        1.0  0.00535  0.63920  0.49845  1.0000
  N   N6        1.0  0.09100  0.66570  0.03540  1.0000
  N   N7        1.0  0.16950  0.58620  0.14340  1.0000
  N   N8        1.0  0.12485  0.52420  0.14445  1.0000
  C   C10       1.0  0.34375  0.67470  0.45425  1.0000
  C   C11       1.0  0.44400  0.69330  0.49240  1.0000
  C   C12       1.0  0.49060  0.75310  0.02575  1.0000
  H   H7        1.0  0.46380  0.79800  0.02870  1.0000
  C   C13       1.0  0.08300  0.73490  0.05365  1.0000
  H   H8        1.0  0.13270  0.76480  0.08075  1.0000
  C   C14       1.0  0.17370  0.62120  0.06270  1.0000
  H   H9        1.0  0.17610  0.58610  0.01750  1.0000
  H   H10       1.0  0.23160  0.64990  0.07065  1.0000
  C   C15       1.0  0.19675  0.61230  0.22405  1.0000
  H   H11       1.0  0.22770  0.65560  0.23905  1.0000
  C   C16       1.0  0.17185  0.56510  0.28045  1.0000
  H   H12       1.0  0.18265  0.56840  0.34155  1.0000
  C   C17       1.0  0.12720  0.51140  0.22790  1.0000
  C   C18       1.0  0.08310  0.44430  0.24520  1.0000
  O   O9        1.0  0.27975  0.78080  0.19570  1.0000
  O   O10       1.0  0.33135  0.89110  0.18470  1.0000
  O   O11       1.0  0.04290  0.08912  0.42580  1.0000
  O   O12       1.0  0.08595  0.07670  0.06950  1.0000
  N   N9        1.0  0.00535  0.86080  0.24845  1.0000
  N   N10       1.0  0.09100  0.83430  0.28540  1.0000
  N   N11       1.0  0.16950  0.91380  0.39340  1.0000
  N   N12       1.0  0.12485  0.97580  0.39445  1.0000
  C   C19       1.0  0.34375  0.82530  0.20425  1.0000
  C   C20       1.0  0.44400  0.80670  0.24240  1.0000
  C   C21       1.0  0.49060  0.74690  0.27575  1.0000
  H   H13       1.0  0.46380  0.70200  0.27870  1.0000
  C   C22       1.0  0.08300  0.76510  0.30365  1.0000
  H   H14       1.0  0.13270  0.73520  0.33075  1.0000
  C   C23       1.0  0.17370  0.87880  0.31270  1.0000
  H   H15       1.0  0.17610  0.91390  0.26750  1.0000
  H   H16       1.0  0.23160  0.85010  0.32065  1.0000
  C   C24       1.0  0.19675  0.88770  0.47405  1.0000
  H   H17       1.0  0.22770  0.84440  0.48905  1.0000
  C   C25       1.0  0.17185  0.93490  0.03045  1.0000
  H   H18       1.0  0.18265  0.93160  0.09155  1.0000
  C   C26       1.0  0.12720  0.98860  0.47790  1.0000
  C   C27       1.0  0.08310  0.05570  0.49520  1.0000
  O   O13       1.0  0.22025  0.28080  0.05430  1.0000
  O   O14       1.0  0.16865  0.39110  0.06530  1.0000
  O   O15       1.0  0.45710  0.58912  0.32420  1.0000
  O   O16       1.0  0.41405  0.57670  0.18050  1.0000
  N   N13       1.0  0.49465  0.36080  0.00155  1.0000
  N   N14       1.0  0.40900  0.33430  0.46460  1.0000
  N   N15       1.0  0.33050  0.41380  0.35660  1.0000
  N   N16       1.0  0.37515  0.47580  0.35555  1.0000
  C   C28       1.0  0.15625  0.32530  0.04575  1.0000
  C   C29       1.0  0.05600  0.30670  0.00760  1.0000
  C   C30       1.0  0.00940  0.24690  0.47425  1.0000
  H   H19       1.0  0.03620  0.20200  0.47130  1.0000
  C   C31       1.0  0.41700  0.26510  0.44635  1.0000
  H   H20       1.0  0.36730  0.23520  0.41925  1.0000
  C   C32       1.0  0.32630  0.37880  0.43730  1.0000
  H   H21       1.0  0.32390  0.41390  0.48250  1.0000
  H   H22       1.0  0.26840  0.35010  0.42935  1.0000
  C   C33       1.0  0.30325  0.38770  0.27595  1.0000
  H   H23       1.0  0.27230  0.34440  0.26095  1.0000
  C   C34       1.0  0.32815  0.43490  0.21955  1.0000
  H   H24       1.0  0.31735  0.43160  0.15845  1.0000
  C   C35       1.0  0.37280  0.48860  0.27210  1.0000
  C   C36       1.0  0.41690  0.55570  0.25480  1.0000
  O   O17       1.0  0.43540  0.99849  0.29315  1.0000
  H   H25       1.0  0.41945  0.98330  0.33805  1.0000
  H   H26       1.0  0.08055  0.48330  0.41195  1.0000
  O   O18       1.0  0.06460  0.49849  0.45685  1.0000
  O   O19       1.0  0.06460  0.00151  0.20685  1.0000
  H   H27       1.0  0.08055  0.01670  0.16195  1.0000
  O   O20       1.0  0.43540  0.50151  0.04315  1.0000
  H   H28       1.0  0.41945  0.51670  0.08805  1.0000
  Cr  Cr1       1.0  0.05462  0.05063  0.31223  1.0000
  Cr  Cr2       1.0  0.44538  0.55063  0.43777  1.0000
  Cr  Cr3       1.0  0.44538  0.94937  0.18777  1.0000
  Cr  Cr4       1.0  0.05462  0.44937  0.06223  1.0000
  O   O21       1.0  0.22025  0.21920  0.80430  1.0000
  O   O22       1.0  0.16865  0.10890  0.81530  1.0000
  O   O23       1.0  0.45710  0.91088  0.57420  1.0000
  O   O24       1.0  0.41405  0.92330  0.93050  1.0000
  N   N17       1.0  0.49465  0.13920  0.75155  1.0000
  N   N18       1.0  0.40900  0.16570  0.71460  1.0000
  N   N19       1.0  0.33050  0.08620  0.60660  1.0000
  N   N20       1.0  0.37515  0.02420  0.60555  1.0000
  C   C37       1.0  0.15625  0.17470  0.79575  1.0000
  C   C38       1.0  0.05600  0.19330  0.75760  1.0000
  C   C39       1.0  0.00940  0.25310  0.72425  1.0000
  H   H29       1.0  0.03620  0.29800  0.72130  1.0000
  C   C40       1.0  0.41700  0.23490  0.69635  1.0000
  H   H30       1.0  0.36730  0.26480  0.66925  1.0000
  C   C41       1.0  0.32630  0.12120  0.68730  1.0000
  H   H31       1.0  0.32390  0.08610  0.73250  1.0000
  H   H32       1.0  0.26840  0.14990  0.67935  1.0000
  C   C42       1.0  0.30325  0.11230  0.52595  1.0000
  H   H33       1.0  0.27230  0.15560  0.51095  1.0000
  C   C43       1.0  0.32815  0.06510  0.96955  1.0000
  H   H34       1.0  0.31735  0.06840  0.90845  1.0000
  C   C44       1.0  0.37280  0.01140  0.52210  1.0000
  C   C45       1.0  0.41690  0.94430  0.50480  1.0000
  O   O25       1.0  0.27975  0.71920  0.94570  1.0000
  O   O26       1.0  0.33135  0.60890  0.93470  1.0000
  O   O27       1.0  0.04290  0.41088  0.67580  1.0000
  O   O28       1.0  0.08595  0.42330  0.81950  1.0000
  N   N21       1.0  0.00535  0.63920  0.99845  1.0000
  N   N22       1.0  0.09100  0.66570  0.53540  1.0000
  N   N23       1.0  0.16950  0.58620  0.64340  1.0000
  N   N24       1.0  0.12485  0.52420  0.64445  1.0000
  C   C46       1.0  0.34375  0.67470  0.95425  1.0000
  C   C47       1.0  0.44400  0.69330  0.99240  1.0000
  C   C48       1.0  0.49060  0.75310  0.52575  1.0000
  H   H35       1.0  0.46380  0.79800  0.52870  1.0000
  C   C49       1.0  0.08300  0.73490  0.55365  1.0000
  H   H36       1.0  0.13270  0.76480  0.58075  1.0000
  C   C50       1.0  0.17370  0.62120  0.56270  1.0000
  H   H37       1.0  0.17610  0.58610  0.51750  1.0000
  H   H38       1.0  0.23160  0.64990  0.57065  1.0000
  C   C51       1.0  0.19675  0.61230  0.72405  1.0000
  H   H39       1.0  0.22770  0.65560  0.73905  1.0000
  C   C52       1.0  0.17185  0.56510  0.78045  1.0000
  H   H40       1.0  0.18265  0.56840  0.84155  1.0000
  C   C53       1.0  0.12720  0.51140  0.72790  1.0000
  C   C54       1.0  0.08310  0.44430  0.74520  1.0000
  O   O29       1.0  0.27975  0.78080  0.69570  1.0000
  O   O30       1.0  0.33135  0.89110  0.68470  1.0000
  O   O31       1.0  0.04290  0.08912  0.92580  1.0000
  O   O32       1.0  0.08595  0.07670  0.56950  1.0000
  N   N25       1.0  0.00535  0.86080  0.74845  1.0000
  N   N26       1.0  0.09100  0.83430  0.78540  1.0000
  N   N27       1.0  0.16950  0.91380  0.89340  1.0000
  N   N28       1.0  0.12485  0.97580  0.89445  1.0000
  C   C55       1.0  0.34375  0.82530  0.70425  1.0000
  C   C56       1.0  0.44400  0.80670  0.74240  1.0000
  C   C57       1.0  0.49060  0.74690  0.77575  1.0000
  H   H41       1.0  0.46380  0.70200  0.77870  1.0000
  C   C58       1.0  0.08300  0.76510  0.80365  1.0000
  H   H42       1.0  0.13270  0.73520  0.83075  1.0000
  C   C59       1.0  0.17370  0.87880  0.81270  1.0000
  H   H43       1.0  0.17610  0.91390  0.76750  1.0000
  H   H44       1.0  0.23160  0.85010  0.82065  1.0000
  C   C60       1.0  0.19675  0.88770  0.97405  1.0000
  H   H45       1.0  0.22770  0.84440  0.98905  1.0000
  C   C61       1.0  0.17185  0.93490  0.53045  1.0000
  H   H46       1.0  0.18265  0.93160  0.59155  1.0000
  C   C62       1.0  0.12720  0.98860  0.97790  1.0000
  C   C63       1.0  0.08310  0.05570  0.99520  1.0000
  O   O33       1.0  0.22025  0.28080  0.55430  1.0000
  O   O34       1.0  0.16865  0.39110  0.56530  1.0000
  O   O35       1.0  0.45710  0.58912  0.82420  1.0000
  O   O36       1.0  0.41405  0.57670  0.68050  1.0000
  N   N29       1.0  0.49465  0.36080  0.50155  1.0000
  N   N30       1.0  0.40900  0.33430  0.96460  1.0000
  N   N31       1.0  0.33050  0.41380  0.85660  1.0000
  N   N32       1.0  0.37515  0.47580  0.85555  1.0000
  C   C64       1.0  0.15625  0.32530  0.54575  1.0000
  C   C65       1.0  0.05600  0.30670  0.50760  1.0000
  C   C66       1.0  0.00940  0.24690  0.97425  1.0000
  H   H47       1.0  0.03620  0.20200  0.97130  1.0000
  C   C67       1.0  0.41700  0.26510  0.94635  1.0000
  H   H48       1.0  0.36730  0.23520  0.91925  1.0000
  C   C68       1.0  0.32630  0.37880  0.93730  1.0000
  H   H49       1.0  0.32390  0.41390  0.98250  1.0000
  H   H50       1.0  0.26840  0.35010  0.92935  1.0000
  C   C69       1.0  0.30325  0.38770  0.77595  1.0000
  H   H51       1.0  0.27230  0.34440  0.76095  1.0000
  C   C70       1.0  0.32815  0.43490  0.71955  1.0000
  H   H52       1.0  0.31735  0.43160  0.65845  1.0000
  C   C71       1.0  0.37280  0.48860  0.77210  1.0000
  C   C72       1.0  0.41690  0.55570  0.75480  1.0000
  O   O37       1.0  0.43540  0.99849  0.79315  1.0000
  H   H53       1.0  0.41945  0.98330  0.83805  1.0000
  H   H54       1.0  0.08055  0.48330  0.91195  1.0000
  O   O38       1.0  0.06460  0.49849  0.95685  1.0000
  O   O39       1.0  0.06460  0.00151  0.70685  1.0000
  H   H55       1.0  0.08055  0.01670  0.66195  1.0000
  O   O40       1.0  0.43540  0.50151  0.54315  1.0000
  H   H56       1.0  0.41945  0.51670  0.58805  1.0000
  Cr  Cr5       1.0  0.05463  0.05063  0.81223  1.0000
  Cr  Cr6       1.0  0.44538  0.55063  0.93777  1.0000
  Cr  Cr7       1.0  0.44538  0.94937  0.68777  1.0000
  Cr  Cr8       1.0  0.05462  0.44937  0.56223  1.0000
  O   O41       1.0  0.72025  0.21920  0.30430  1.0000
  O   O42       1.0  0.66865  0.10890  0.31530  1.0000
  O   O43       1.0  0.95710  0.91088  0.07420  1.0000
  O   O44       1.0  0.91405  0.92330  0.43050  1.0000
  N   N33       1.0  0.99465  0.13920  0.25155  1.0000
  N   N34       1.0  0.90900  0.16570  0.21460  1.0000
  N   N35       1.0  0.83050  0.08620  0.10660  1.0000
  N   N36       1.0  0.87515  0.02420  0.10555  1.0000
  C   C73       1.0  0.65625  0.17470  0.29575  1.0000
  C   C74       1.0  0.55600  0.19330  0.25760  1.0000
  C   C75       1.0  0.50940  0.25310  0.22425  1.0000
  H   H57       1.0  0.53620  0.29800  0.22130  1.0000
  C   C76       1.0  0.91700  0.23490  0.19635  1.0000
  H   H58       1.0  0.86730  0.26480  0.16925  1.0000
  C   C77       1.0  0.82630  0.12120  0.18730  1.0000
  H   H59       1.0  0.82390  0.08610  0.23250  1.0000
  H   H60       1.0  0.76840  0.14990  0.17935  1.0000
  C   C78       1.0  0.80325  0.11230  0.02595  1.0000
  H   H61       1.0  0.77230  0.15560  0.01095  1.0000
  C   C79       1.0  0.82815  0.06510  0.46955  1.0000
  H   H62       1.0  0.81735  0.06840  0.40845  1.0000
  C   C80       1.0  0.87280  0.01140  0.02210  1.0000
  C   C81       1.0  0.91690  0.94430  0.00480  1.0000
  O   O45       1.0  0.77975  0.71920  0.44570  1.0000
  O   O46       1.0  0.83135  0.60890  0.43470  1.0000
  O   O47       1.0  0.54290  0.41088  0.17580  1.0000
  O   O48       1.0  0.58595  0.42330  0.31950  1.0000
  N   N37       1.0  0.50535  0.63920  0.49845  1.0000
  N   N38       1.0  0.59100  0.66570  0.03540  1.0000
  N   N39       1.0  0.66950  0.58620  0.14340  1.0000
  N   N40       1.0  0.62485  0.52420  0.14445  1.0000
  C   C82       1.0  0.84375  0.67470  0.45425  1.0000
  C   C83       1.0  0.94400  0.69330  0.49240  1.0000
  C   C84       1.0  0.99060  0.75310  0.02575  1.0000
  H   H63       1.0  0.96380  0.79800  0.02870  1.0000
  C   C85       1.0  0.58300  0.73490  0.05365  1.0000
  H   H64       1.0  0.63270  0.76480  0.08075  1.0000
  C   C86       1.0  0.67370  0.62120  0.06270  1.0000
  H   H65       1.0  0.67610  0.58610  0.01750  1.0000
  H   H66       1.0  0.73160  0.64990  0.07065  1.0000
  C   C87       1.0  0.69675  0.61230  0.22405  1.0000
  H   H67       1.0  0.72770  0.65560  0.23905  1.0000
  C   C88       1.0  0.67185  0.56510  0.28045  1.0000
  H   H68       1.0  0.68265  0.56840  0.34155  1.0000
  C   C89       1.0  0.62720  0.51140  0.22790  1.0000
  C   C90       1.0  0.58310  0.44430  0.24520  1.0000
  O   O49       1.0  0.77975  0.78080  0.19570  1.0000
  O   O50       1.0  0.83135  0.89110  0.18470  1.0000
  O   O51       1.0  0.54290  0.08912  0.42580  1.0000
  O   O52       1.0  0.58595  0.07670  0.06950  1.0000
  N   N41       1.0  0.50535  0.86080  0.24845  1.0000
  N   N42       1.0  0.59100  0.83430  0.28540  1.0000
  N   N43       1.0  0.66950  0.91380  0.39340  1.0000
  N   N44       1.0  0.62485  0.97580  0.39445  1.0000
  C   C91       1.0  0.84375  0.82530  0.20425  1.0000
  C   C92       1.0  0.94400  0.80670  0.24240  1.0000
  C   C93       1.0  0.99060  0.74690  0.27575  1.0000
  H   H69       1.0  0.96380  0.70200  0.27870  1.0000
  C   C94       1.0  0.58300  0.76510  0.30365  1.0000
  H   H70       1.0  0.63270  0.73520  0.33075  1.0000
  C   C95       1.0  0.67370  0.87880  0.31270  1.0000
  H   H71       1.0  0.67610  0.91390  0.26750  1.0000
  H   H72       1.0  0.73160  0.85010  0.32065  1.0000
  C   C96       1.0  0.69675  0.88770  0.47405  1.0000
  H   H73       1.0  0.72770  0.84440  0.48905  1.0000
  C   C97       1.0  0.67185  0.93490  0.03045  1.0000
  H   H74       1.0  0.68265  0.93160  0.09155  1.0000
  C   C98       1.0  0.62720  0.98860  0.47790  1.0000
  C   C99       1.0  0.58310  0.05570  0.49520  1.0000
  O   O53       1.0  0.72025  0.28080  0.05430  1.0000
  O   O54       1.0  0.66865  0.39110  0.06530  1.0000
  O   O55       1.0  0.95710  0.58912  0.32420  1.0000
  O   O56       1.0  0.91405  0.57670  0.18050  1.0000
  N   N45       1.0  0.99465  0.36080  0.00155  1.0000
  N   N46       1.0  0.90900  0.33430  0.46460  1.0000
  N   N47       1.0  0.83050  0.41380  0.35660  1.0000
  N   N48       1.0  0.87515  0.47580  0.35555  1.0000
  C   C100      1.0  0.65625  0.32530  0.04575  1.0000
  C   C101      1.0  0.55600  0.30670  0.00760  1.0000
  C   C102      1.0  0.50940  0.24690  0.47425  1.0000
  H   H75       1.0  0.53620  0.20200  0.47130  1.0000
  C   C103      1.0  0.91700  0.26510  0.44635  1.0000
  H   H76       1.0  0.86730  0.23520  0.41925  1.0000
  C   C104      1.0  0.82630  0.37880  0.43730  1.0000
  H   H77       1.0  0.82390  0.41390  0.48250  1.0000
  H   H78       1.0  0.76840  0.35010  0.42935  1.0000
  C   C105      1.0  0.80325  0.38770  0.27595  1.0000
  H   H79       1.0  0.77230  0.34440  0.26095  1.0000
  C   C106      1.0  0.82815  0.43490  0.21955  1.0000
  H   H80       1.0  0.81735  0.43160  0.15845  1.0000
  C   C107      1.0  0.87280  0.48860  0.27210  1.0000
  C   C108      1.0  0.91690  0.55570  0.25480  1.0000
  O   O57       1.0  0.93540  0.99849  0.29315  1.0000
  H   H81       1.0  0.91945  0.98330  0.33805  1.0000
  H   H82       1.0  0.58055  0.48330  0.41195  1.0000
  O   O58       1.0  0.56460  0.49849  0.45685  1.0000
  O   O59       1.0  0.56460  0.00151  0.20685  1.0000
  H   H83       1.0  0.58055  0.01670  0.16195  1.0000
  O   O60       1.0  0.93540  0.50151  0.04315  1.0000
  H   H84       1.0  0.91945  0.51670  0.08805  1.0000
  Cr  Cr9       1.0  0.55463  0.05063  0.31223  1.0000
  Cr  Cr10      1.0  0.94537  0.55063  0.43777  1.0000
  Cr  Cr11      1.0  0.94538  0.94937  0.18777  1.0000
  Cr  Cr12      1.0  0.55463  0.44937  0.06223  1.0000
  O   O61       1.0  0.72025  0.21920  0.80430  1.0000
  O   O62       1.0  0.66865  0.10890  0.81530  1.0000
  O   O63       1.0  0.95710  0.91088  0.57420  1.0000
  O   O64       1.0  0.91405  0.92330  0.93050  1.0000
  N   N49       1.0  0.99465  0.13920  0.75155  1.0000
  N   N50       1.0  0.90900  0.16570  0.71460  1.0000
  N   N51       1.0  0.83050  0.08620  0.60660  1.0000
  N   N52       1.0  0.87515  0.02420  0.60555  1.0000
  C   C109      1.0  0.65625  0.17470  0.79575  1.0000
  C   C110      1.0  0.55600  0.19330  0.75760  1.0000
  C   C111      1.0  0.50940  0.25310  0.72425  1.0000
  H   H85       1.0  0.53620  0.29800  0.72130  1.0000
  C   C112      1.0  0.91700  0.23490  0.69635  1.0000
  H   H86       1.0  0.86730  0.26480  0.66925  1.0000
  C   C113      1.0  0.82630  0.12120  0.68730  1.0000
  H   H87       1.0  0.82390  0.08610  0.73250  1.0000
  H   H88       1.0  0.76840  0.14990  0.67935  1.0000
  C   C114      1.0  0.80325  0.11230  0.52595  1.0000
  H   H89       1.0  0.77230  0.15560  0.51095  1.0000
  C   C115      1.0  0.82815  0.06510  0.96955  1.0000
  H   H90       1.0  0.81735  0.06840  0.90845  1.0000
  C   C116      1.0  0.87280  0.01140  0.52210  1.0000
  C   C117      1.0  0.91690  0.94430  0.50480  1.0000
  O   O65       1.0  0.77975  0.71920  0.94570  1.0000
  O   O66       1.0  0.83135  0.60890  0.93470  1.0000
  O   O67       1.0  0.54290  0.41088  0.67580  1.0000
  O   O68       1.0  0.58595  0.42330  0.81950  1.0000
  N   N53       1.0  0.50535  0.63920  0.99845  1.0000
  N   N54       1.0  0.59100  0.66570  0.53540  1.0000
  N   N55       1.0  0.66950  0.58620  0.64340  1.0000
  N   N56       1.0  0.62485  0.52420  0.64445  1.0000
  C   C118      1.0  0.84375  0.67470  0.95425  1.0000
  C   C119      1.0  0.94400  0.69330  0.99240  1.0000
  C   C120      1.0  0.99060  0.75310  0.52575  1.0000
  H   H91       1.0  0.96380  0.79800  0.52870  1.0000
  C   C121      1.0  0.58300  0.73490  0.55365  1.0000
  H   H92       1.0  0.63270  0.76480  0.58075  1.0000
  C   C122      1.0  0.67370  0.62120  0.56270  1.0000
  H   H93       1.0  0.67610  0.58610  0.51750  1.0000
  H   H94       1.0  0.73160  0.64990  0.57065  1.0000
  C   C123      1.0  0.69675  0.61230  0.72405  1.0000
  H   H95       1.0  0.72770  0.65560  0.73905  1.0000
  C   C124      1.0  0.67185  0.56510  0.78045  1.0000
  H   H96       1.0  0.68265  0.56840  0.84155  1.0000
  C   C125      1.0  0.62720  0.51140  0.72790  1.0000
  C   C126      1.0  0.58310  0.44430  0.74520  1.0000
  O   O69       1.0  0.77975  0.78080  0.69570  1.0000
  O   O70       1.0  0.83135  0.89110  0.68470  1.0000
  O   O71       1.0  0.54290  0.08912  0.92580  1.0000
  O   O72       1.0  0.58595  0.07670  0.56950  1.0000
  N   N57       1.0  0.50535  0.86080  0.74845  1.0000
  N   N58       1.0  0.59100  0.83430  0.78540  1.0000
  N   N59       1.0  0.66950  0.91380  0.89340  1.0000
  N   N60       1.0  0.62485  0.97580  0.89445  1.0000
  C   C127      1.0  0.84375  0.82530  0.70425  1.0000
  C   C128      1.0  0.94400  0.80670  0.74240  1.0000
  C   C129      1.0  0.99060  0.74690  0.77575  1.0000
  H   H97       1.0  0.96380  0.70200  0.77870  1.0000
  C   C130      1.0  0.58300  0.76510  0.80365  1.0000
  H   H98       1.0  0.63270  0.73520  0.83075  1.0000
  C   C131      1.0  0.67370  0.87880  0.81270  1.0000
  H   H99       1.0  0.67610  0.91390  0.76750  1.0000
  H   H100      1.0  0.73160  0.85010  0.82065  1.0000
  C   C132      1.0  0.69675  0.88770  0.97405  1.0000
  H   H101      1.0  0.72770  0.84440  0.98905  1.0000
  C   C133      1.0  0.67185  0.93490  0.53045  1.0000
  H   H102      1.0  0.68265  0.93160  0.59155  1.0000
  C   C134      1.0  0.62720  0.98860  0.97790  1.0000
  C   C135      1.0  0.58310  0.05570  0.99520  1.0000
  O   O73       1.0  0.72025  0.28080  0.55430  1.0000
  O   O74       1.0  0.66865  0.39110  0.56530  1.0000
  O   O75       1.0  0.95710  0.58912  0.82420  1.0000
  O   O76       1.0  0.91405  0.57670  0.68050  1.0000
  N   N61       1.0  0.99465  0.36080  0.50155  1.0000
  N   N62       1.0  0.90900  0.33430  0.96460  1.0000
  N   N63       1.0  0.83050  0.41380  0.85660  1.0000
  N   N64       1.0  0.87515  0.47580  0.85555  1.0000
  C   C136      1.0  0.65625  0.32530  0.54575  1.0000
  C   C137      1.0  0.55600  0.30670  0.50760  1.0000
  C   C138      1.0  0.50940  0.24690  0.97425  1.0000
  H   H103      1.0  0.53620  0.20200  0.97130  1.0000
  C   C139      1.0  0.91700  0.26510  0.94635  1.0000
  H   H104      1.0  0.86730  0.23520  0.91925  1.0000
  C   C140      1.0  0.82630  0.37880  0.93730  1.0000
  H   H105      1.0  0.82390  0.41390  0.98250  1.0000
  H   H106      1.0  0.76840  0.35010  0.92935  1.0000
  C   C141      1.0  0.80325  0.38770  0.77595  1.0000
  H   H107      1.0  0.77230  0.34440  0.76095  1.0000
  C   C142      1.0  0.82815  0.43490  0.71955  1.0000
  H   H108      1.0  0.81735  0.43160  0.65845  1.0000
  C   C143      1.0  0.87280  0.48860  0.77210  1.0000
  C   C144      1.0  0.91690  0.55570  0.75480  1.0000
  O   O77       1.0  0.93540  0.99849  0.79315  1.0000
  H   H109      1.0  0.91945  0.98330  0.83805  1.0000
  H   H110      1.0  0.58055  0.48330  0.91195  1.0000
  O   O78       1.0  0.56460  0.49849  0.95685  1.0000
  O   O79       1.0  0.56460  0.00151  0.70685  1.0000
  H   H111      1.0  0.58055  0.01670  0.66195  1.0000
  O   O80       1.0  0.93540  0.50151  0.54315  1.0000
  H   H112      1.0  0.91945  0.51670  0.58805  1.0000
  Cr  Cr13      1.0  0.55463  0.05063  0.81223  1.0000
  Cr  Cr14      1.0  0.94538  0.55063  0.93777  1.0000
  Cr  Cr15      1.0  0.94538  0.94937  0.68777  1.0000
  Cr  Cr16      1.0  0.55463  0.44937  0.56223  1.0000
