data_image0
_chemical_formula_structural       ON3C2HC2HCHCHC3HC2HC2HCHCHCHCHC2HCHCHCH3ON3C2HC2HCHCHC3HC2HC2HCHCHCHCHC2HCHCHCH4CHCH3ON3C2HC2HCHCHC3HC2HC2HCHCHCHCHC2HCON3C2HC2HCHCHC3HC2HC2HCHCHCHCHC2HCHCHCH3ON3C2HC2HCHCHC3HC2HC2HCHCHCHCHC2HCHCHCH4CHC2HCHCHCH3ON3C2HC2HCHCHC3HC2HC2HCHCHCON3C2HC2HCHCHC3HC2HC2HCHCHCHCHC2HCHCHCH3ON3C2HC2HCHCHC3HC2HC2HCHCHCHCHC2HCHCHCH3ICuICuICuICuICuICuICuICu
_chemical_formula_sum              "O8 N24 C176 H136 I8 Cu8"
_cell_length_a       23.955
_cell_length_b       12.812
_cell_length_c       17.923
_cell_angle_alpha    90
_cell_angle_beta     114.131
_cell_angle_gamma    90

_space_group_name_H-M_alt    "P 1"
_space_group_IT_number       1

loop_
  _space_group_symop_operation_xyz
  'x, y, z'

loop_
  _atom_site_type_symbol
  _atom_site_label
  _atom_site_symmetry_multiplicity
  _atom_site_fract_x
  _atom_site_fract_y
  _atom_site_fract_z
  _atom_site_occupancy
  O   O1        1.0  0.79850  0.87390  0.77860  1.0000
  N   N1        1.0  0.93410  0.14270  0.55970  1.0000
  N   N2        1.0  0.57230  0.45400  0.18020  1.0000
  N   N3        1.0  0.75550  0.38580  0.44220  1.0000
  C   C1        1.0  0.71560  0.46700  0.42160  1.0000
  C   C2        1.0  0.72200  0.55080  0.47330  1.0000
  H   H1        1.0  0.69410  0.60560  0.45650  1.0000
  C   C3        1.0  0.76980  0.55310  0.55000  1.0000
  C   C4        1.0  0.84030  0.22640  0.47580  1.0000
  H   H2        1.0  0.80620  0.22780  0.42620  1.0000
  C   C5        1.0  0.61440  0.52400  0.31570  1.0000
  H   H3        1.0  0.61020  0.56980  0.35340  1.0000
  C   C6        1.0  0.80980  0.46780  0.57230  1.0000
  H   H4        1.0  0.84140  0.46440  0.62420  1.0000
  C   C7        1.0  0.80150  0.38830  0.51600  1.0000
  C   C8        1.0  0.66480  0.46020  0.33870  1.0000
  C   C9        1.0  0.88360  0.15020  0.48970  1.0000
  H   H5        1.0  0.87770  0.10130  0.44880  1.0000
  C   C10       1.0  0.84660  0.30090  0.53400  1.0000
  C   C11       1.0  0.93910  0.21330  0.61760  1.0000
  H   H6        1.0  0.97310  0.20930  0.66720  1.0000
  C   C12       1.0  0.77670  0.64090  0.60680  1.0000
  C   C13       1.0  0.62050  0.39060  0.20310  1.0000
  H   H7        1.0  0.62310  0.34420  0.16480  1.0000
  C   C14       1.0  0.66730  0.39020  0.28180  1.0000
  H   H8        1.0  0.69960  0.34340  0.29550  1.0000
  C   C15       1.0  0.72640  0.69870  0.60280  1.0000
  H   H9        1.0  0.68830  0.68470  0.56130  1.0000
  C   C16       1.0  0.89760  0.29020  0.60810  1.0000
  H   H10       1.0  0.90320  0.33570  0.65100  1.0000
  C   C17       1.0  0.56970  0.52040  0.23650  1.0000
  H   H11       1.0  0.53670  0.56580  0.22180  1.0000
  C   C18       1.0  0.78780  0.79960  0.71920  1.0000
  C   C19       1.0  0.73150  0.77650  0.65890  1.0000
  H   H12       1.0  0.69700  0.81270  0.65570  1.0000
  C   C20       1.0  0.83410  0.66800  0.66820  1.0000
  H   H13       1.0  0.86900  0.63300  0.67120  1.0000
  C   C21       1.0  0.83940  0.74510  0.72360  1.0000
  H   H14       1.0  0.87750  0.76110  0.76430  1.0000
  C   C22       1.0  0.74710  0.93520  0.77300  1.0000
  H   H15       1.0  0.72790  0.96490  0.71920  1.0000
  H   H16       1.0  0.76060  0.99020  0.81280  1.0000
  H   H17       1.0  0.71830  0.89170  0.78310  1.0000
  O   O2        1.0  0.29850  0.37390  0.77860  1.0000
  N   N4        1.0  0.43410  0.64270  0.55970  1.0000
  N   N5        1.0  0.07230  0.95400  0.18020  1.0000
  N   N6        1.0  0.25550  0.88580  0.44220  1.0000
  C   C23       1.0  0.21560  0.96700  0.42160  1.0000
  C   C24       1.0  0.22200  0.05080  0.47330  1.0000
  H   H18       1.0  0.19410  0.10560  0.45650  1.0000
  C   C25       1.0  0.26980  0.05310  0.55000  1.0000
  C   C26       1.0  0.34030  0.72640  0.47580  1.0000
  H   H19       1.0  0.30620  0.72780  0.42620  1.0000
  C   C27       1.0  0.11440  0.02400  0.31570  1.0000
  H   H20       1.0  0.11020  0.06980  0.35340  1.0000
  C   C28       1.0  0.30980  0.96780  0.57230  1.0000
  H   H21       1.0  0.34140  0.96440  0.62420  1.0000
  C   C29       1.0  0.30150  0.88830  0.51600  1.0000
  C   C30       1.0  0.16480  0.96020  0.33870  1.0000
  C   C31       1.0  0.38360  0.65020  0.48970  1.0000
  H   H22       1.0  0.37770  0.60130  0.44880  1.0000
  C   C32       1.0  0.34660  0.80090  0.53400  1.0000
  C   C33       1.0  0.43910  0.71330  0.61760  1.0000
  H   H23       1.0  0.47310  0.70930  0.66720  1.0000
  C   C34       1.0  0.27670  0.14090  0.60680  1.0000
  C   C35       1.0  0.12050  0.89060  0.20310  1.0000
  H   H24       1.0  0.12310  0.84420  0.16480  1.0000
  C   C36       1.0  0.16730  0.89020  0.28180  1.0000
  H   H25       1.0  0.19960  0.84340  0.29550  1.0000
  C   C37       1.0  0.22640  0.19870  0.60280  1.0000
  H   H26       1.0  0.18830  0.18470  0.56130  1.0000
  C   C38       1.0  0.39760  0.79020  0.60810  1.0000
  H   H27       1.0  0.40320  0.83570  0.65100  1.0000
  C   C39       1.0  0.06970  0.02040  0.23650  1.0000
  H   H28       1.0  0.03670  0.06580  0.22180  1.0000
  C   C40       1.0  0.28780  0.29960  0.71920  1.0000
  C   C41       1.0  0.23150  0.27650  0.65890  1.0000
  H   H29       1.0  0.19700  0.31270  0.65570  1.0000
  C   C42       1.0  0.33410  0.16800  0.66820  1.0000
  H   H30       1.0  0.36900  0.13300  0.67120  1.0000
  C   C43       1.0  0.33940  0.24510  0.72360  1.0000
  H   H31       1.0  0.37750  0.26110  0.76430  1.0000
  C   C44       1.0  0.24710  0.43520  0.77300  1.0000
  H   H32       1.0  0.22790  0.46490  0.71920  1.0000
  H   H33       1.0  0.26060  0.49020  0.81280  1.0000
  H   H34       1.0  0.21830  0.39170  0.78310  1.0000
  H   H35       1.0  0.13100  0.63300  0.82880  1.0000
  C   C45       1.0  0.16060  0.74510  0.77640  1.0000
  H   H36       1.0  0.12250  0.76110  0.73570  1.0000
  C   C46       1.0  0.25290  0.93520  0.72700  1.0000
  H   H37       1.0  0.27210  0.96490  0.78080  1.0000
  H   H38       1.0  0.23940  0.99020  0.68720  1.0000
  H   H39       1.0  0.28170  0.89170  0.71690  1.0000
  O   O3        1.0  0.20150  0.87390  0.72140  1.0000
  N   N7        1.0  0.06590  0.14270  0.94030  1.0000
  N   N8        1.0  0.42770  0.45400  0.31980  1.0000
  N   N9        1.0  0.24450  0.38580  0.05780  1.0000
  C   C47       1.0  0.28440  0.46700  0.07840  1.0000
  C   C48       1.0  0.27800  0.55080  0.02670  1.0000
  H   H40       1.0  0.30590  0.60560  0.04350  1.0000
  C   C49       1.0  0.23020  0.55310  0.95000  1.0000
  C   C50       1.0  0.15970  0.22640  0.02420  1.0000
  H   H41       1.0  0.19380  0.22780  0.07380  1.0000
  C   C51       1.0  0.38560  0.52400  0.18430  1.0000
  H   H42       1.0  0.38980  0.56980  0.14660  1.0000
  C   C52       1.0  0.19020  0.46780  0.92770  1.0000
  H   H43       1.0  0.15860  0.46440  0.87580  1.0000
  C   C53       1.0  0.19850  0.38830  0.98400  1.0000
  C   C54       1.0  0.33520  0.46020  0.16130  1.0000
  C   C55       1.0  0.11640  0.15020  0.01030  1.0000
  H   H44       1.0  0.12230  0.10130  0.05120  1.0000
  C   C56       1.0  0.15340  0.30090  0.96600  1.0000
  C   C57       1.0  0.06090  0.21330  0.88240  1.0000
  H   H45       1.0  0.02690  0.20930  0.83280  1.0000
  C   C58       1.0  0.22330  0.64090  0.89320  1.0000
  C   C59       1.0  0.37950  0.39060  0.29690  1.0000
  H   H46       1.0  0.37690  0.34420  0.33520  1.0000
  C   C60       1.0  0.33270  0.39020  0.21820  1.0000
  H   H47       1.0  0.30040  0.34340  0.20450  1.0000
  C   C61       1.0  0.27360  0.69870  0.89720  1.0000
  H   H48       1.0  0.31170  0.68470  0.93870  1.0000
  C   C62       1.0  0.10240  0.29020  0.89190  1.0000
  H   H49       1.0  0.09680  0.33570  0.84900  1.0000
  C   C63       1.0  0.43030  0.52040  0.26350  1.0000
  H   H50       1.0  0.46330  0.56580  0.27820  1.0000
  C   C64       1.0  0.21220  0.79960  0.78080  1.0000
  C   C65       1.0  0.26850  0.77650  0.84110  1.0000
  H   H51       1.0  0.30300  0.81270  0.84430  1.0000
  C   C66       1.0  0.16590  0.66800  0.83180  1.0000
  O   O4        1.0  0.70150  0.37390  0.72140  1.0000
  N   N10       1.0  0.56590  0.64270  0.94030  1.0000
  N   N11       1.0  0.92770  0.95400  0.31980  1.0000
  N   N12       1.0  0.74450  0.88580  0.05780  1.0000
  C   C67       1.0  0.78440  0.96700  0.07840  1.0000
  C   C68       1.0  0.77800  0.05080  0.02670  1.0000
  H   H52       1.0  0.80590  0.10560  0.04350  1.0000
  C   C69       1.0  0.73020  0.05310  0.95000  1.0000
  C   C70       1.0  0.65970  0.72640  0.02420  1.0000
  H   H53       1.0  0.69380  0.72780  0.07380  1.0000
  C   C71       1.0  0.88560  0.02400  0.18430  1.0000
  H   H54       1.0  0.88980  0.06980  0.14660  1.0000
  C   C72       1.0  0.69020  0.96780  0.92770  1.0000
  H   H55       1.0  0.65860  0.96440  0.87580  1.0000
  C   C73       1.0  0.69850  0.88830  0.98400  1.0000
  C   C74       1.0  0.83520  0.96020  0.16130  1.0000
  C   C75       1.0  0.61640  0.65020  0.01030  1.0000
  H   H56       1.0  0.62230  0.60130  0.05120  1.0000
  C   C76       1.0  0.65340  0.80090  0.96600  1.0000
  C   C77       1.0  0.56090  0.71330  0.88240  1.0000
  H   H57       1.0  0.52690  0.70930  0.83280  1.0000
  C   C78       1.0  0.72330  0.14090  0.89320  1.0000
  C   C79       1.0  0.87950  0.89060  0.29690  1.0000
  H   H58       1.0  0.87690  0.84420  0.33520  1.0000
  C   C80       1.0  0.83270  0.89020  0.21820  1.0000
  H   H59       1.0  0.80040  0.84340  0.20450  1.0000
  C   C81       1.0  0.77360  0.19870  0.89720  1.0000
  H   H60       1.0  0.81170  0.18470  0.93870  1.0000
  C   C82       1.0  0.60240  0.79020  0.89190  1.0000
  H   H61       1.0  0.59680  0.83570  0.84900  1.0000
  C   C83       1.0  0.93030  0.02040  0.26350  1.0000
  H   H62       1.0  0.96330  0.06580  0.27820  1.0000
  C   C84       1.0  0.71220  0.29960  0.78080  1.0000
  C   C85       1.0  0.76850  0.27650  0.84110  1.0000
  H   H63       1.0  0.80300  0.31270  0.84430  1.0000
  C   C86       1.0  0.66590  0.16800  0.83180  1.0000
  H   H64       1.0  0.63100  0.13300  0.82880  1.0000
  C   C87       1.0  0.66060  0.24510  0.77640  1.0000
  H   H65       1.0  0.62250  0.26110  0.73570  1.0000
  C   C88       1.0  0.75290  0.43520  0.72700  1.0000
  H   H66       1.0  0.77210  0.46490  0.78080  1.0000
  H   H67       1.0  0.73940  0.49020  0.68720  1.0000
  H   H68       1.0  0.78170  0.39170  0.71690  1.0000
  O   O5        1.0  0.20150  0.12610  0.22140  1.0000
  N   N13       1.0  0.06590  0.85730  0.44030  1.0000
  N   N14       1.0  0.42770  0.54600  0.81980  1.0000
  N   N15       1.0  0.24450  0.61420  0.55780  1.0000
  C   C89       1.0  0.28440  0.53300  0.57840  1.0000
  C   C90       1.0  0.27800  0.44920  0.52670  1.0000
  H   H69       1.0  0.30590  0.39440  0.54350  1.0000
  C   C91       1.0  0.23020  0.44690  0.45000  1.0000
  C   C92       1.0  0.15970  0.77360  0.52420  1.0000
  H   H70       1.0  0.19380  0.77220  0.57380  1.0000
  C   C93       1.0  0.38560  0.47600  0.68430  1.0000
  H   H71       1.0  0.38980  0.43020  0.64660  1.0000
  C   C94       1.0  0.19020  0.53220  0.42770  1.0000
  H   H72       1.0  0.15860  0.53560  0.37580  1.0000
  C   C95       1.0  0.19850  0.61170  0.48400  1.0000
  C   C96       1.0  0.33520  0.53980  0.66130  1.0000
  C   C97       1.0  0.11640  0.84980  0.51030  1.0000
  H   H73       1.0  0.12230  0.89870  0.55120  1.0000
  C   C98       1.0  0.15340  0.69910  0.46600  1.0000
  C   C99       1.0  0.06090  0.78670  0.38240  1.0000
  H   H74       1.0  0.02690  0.79070  0.33280  1.0000
  C   C100      1.0  0.22330  0.35910  0.39320  1.0000
  C   C101      1.0  0.37950  0.60940  0.79690  1.0000
  H   H75       1.0  0.37690  0.65580  0.83520  1.0000
  C   C102      1.0  0.33270  0.60980  0.71820  1.0000
  H   H76       1.0  0.30040  0.65660  0.70450  1.0000
  C   C103      1.0  0.27360  0.30130  0.39720  1.0000
  H   H77       1.0  0.31170  0.31530  0.43870  1.0000
  C   C104      1.0  0.10240  0.70980  0.39190  1.0000
  H   H78       1.0  0.09680  0.66430  0.34900  1.0000
  C   C105      1.0  0.43030  0.47960  0.76350  1.0000
  H   H79       1.0  0.46330  0.43420  0.77820  1.0000
  C   C106      1.0  0.21220  0.20040  0.28080  1.0000
  C   C107      1.0  0.26850  0.22350  0.34110  1.0000
  H   H80       1.0  0.30300  0.18730  0.34430  1.0000
  C   C108      1.0  0.16590  0.33200  0.33180  1.0000
  H   H81       1.0  0.13100  0.36700  0.32880  1.0000
  C   C109      1.0  0.16060  0.25490  0.27640  1.0000
  H   H82       1.0  0.12250  0.23890  0.23570  1.0000
  C   C110      1.0  0.25290  0.06480  0.22700  1.0000
  H   H83       1.0  0.27210  0.03510  0.28080  1.0000
  H   H84       1.0  0.23940  0.00980  0.18720  1.0000
  H   H85       1.0  0.28170  0.10830  0.21690  1.0000
  H   H86       1.0  0.59680  0.16430  0.34900  1.0000
  C   C111      1.0  0.93030  0.97960  0.76350  1.0000
  H   H87       1.0  0.96330  0.93420  0.77820  1.0000
  C   C112      1.0  0.71220  0.70040  0.28080  1.0000
  C   C113      1.0  0.76850  0.72350  0.34110  1.0000
  H   H88       1.0  0.80300  0.68730  0.34430  1.0000
  C   C114      1.0  0.66590  0.83200  0.33180  1.0000
  H   H89       1.0  0.63100  0.86700  0.32880  1.0000
  C   C115      1.0  0.66060  0.75490  0.27640  1.0000
  H   H90       1.0  0.62250  0.73890  0.23570  1.0000
  C   C116      1.0  0.75290  0.56480  0.22700  1.0000
  H   H91       1.0  0.77210  0.53510  0.28080  1.0000
  H   H92       1.0  0.73940  0.50980  0.18720  1.0000
  H   H93       1.0  0.78170  0.60830  0.21690  1.0000
  O   O6        1.0  0.70150  0.62610  0.22140  1.0000
  N   N16       1.0  0.56590  0.35730  0.44030  1.0000
  N   N17       1.0  0.92770  0.04600  0.81980  1.0000
  N   N18       1.0  0.74450  0.11420  0.55780  1.0000
  C   C117      1.0  0.78440  0.03300  0.57840  1.0000
  C   C118      1.0  0.77800  0.94920  0.52670  1.0000
  H   H94       1.0  0.80590  0.89440  0.54350  1.0000
  C   C119      1.0  0.73020  0.94690  0.45000  1.0000
  C   C120      1.0  0.65970  0.27360  0.52420  1.0000
  H   H95       1.0  0.69380  0.27220  0.57380  1.0000
  C   C121      1.0  0.88560  0.97600  0.68430  1.0000
  H   H96       1.0  0.88980  0.93020  0.64660  1.0000
  C   C122      1.0  0.69020  0.03220  0.42770  1.0000
  H   H97       1.0  0.65860  0.03560  0.37580  1.0000
  C   C123      1.0  0.69850  0.11170  0.48400  1.0000
  C   C124      1.0  0.83520  0.03980  0.66130  1.0000
  C   C125      1.0  0.61640  0.34980  0.51030  1.0000
  H   H98       1.0  0.62230  0.39870  0.55120  1.0000
  C   C126      1.0  0.65340  0.19910  0.46600  1.0000
  C   C127      1.0  0.56090  0.28670  0.38240  1.0000
  H   H99       1.0  0.52690  0.29070  0.33280  1.0000
  C   C128      1.0  0.72330  0.85910  0.39320  1.0000
  C   C129      1.0  0.87950  0.10940  0.79690  1.0000
  H   H100      1.0  0.87690  0.15580  0.83520  1.0000
  C   C130      1.0  0.83270  0.10980  0.71820  1.0000
  H   H101      1.0  0.80040  0.15660  0.70450  1.0000
  C   C131      1.0  0.77360  0.80130  0.39720  1.0000
  H   H102      1.0  0.81170  0.81530  0.43870  1.0000
  C   C132      1.0  0.60240  0.20980  0.39190  1.0000
  O   O7        1.0  0.79850  0.12610  0.27860  1.0000
  N   N19       1.0  0.93410  0.85730  0.05970  1.0000
  N   N20       1.0  0.57230  0.54600  0.68020  1.0000
  N   N21       1.0  0.75550  0.61420  0.94220  1.0000
  C   C133      1.0  0.71560  0.53300  0.92160  1.0000
  C   C134      1.0  0.72200  0.44920  0.97330  1.0000
  H   H103      1.0  0.69410  0.39440  0.95650  1.0000
  C   C135      1.0  0.76980  0.44690  0.05000  1.0000
  C   C136      1.0  0.84030  0.77360  0.97580  1.0000
  H   H104      1.0  0.80620  0.77220  0.92620  1.0000
  C   C137      1.0  0.61440  0.47600  0.81570  1.0000
  H   H105      1.0  0.61020  0.43020  0.85340  1.0000
  C   C138      1.0  0.80980  0.53220  0.07230  1.0000
  H   H106      1.0  0.84140  0.53560  0.12420  1.0000
  C   C139      1.0  0.80150  0.61170  0.01600  1.0000
  C   C140      1.0  0.66480  0.53980  0.83870  1.0000
  C   C141      1.0  0.88360  0.84980  0.98970  1.0000
  H   H107      1.0  0.87770  0.89870  0.94880  1.0000
  C   C142      1.0  0.84660  0.69910  0.03400  1.0000
  C   C143      1.0  0.93910  0.78670  0.11760  1.0000
  H   H108      1.0  0.97310  0.79070  0.16720  1.0000
  C   C144      1.0  0.77670  0.35910  0.10680  1.0000
  C   C145      1.0  0.62050  0.60940  0.70310  1.0000
  H   H109      1.0  0.62310  0.65580  0.66480  1.0000
  C   C146      1.0  0.66730  0.60980  0.78180  1.0000
  H   H110      1.0  0.69960  0.65660  0.79550  1.0000
  C   C147      1.0  0.72640  0.30130  0.10280  1.0000
  H   H111      1.0  0.68830  0.31530  0.06130  1.0000
  C   C148      1.0  0.89760  0.70980  0.10810  1.0000
  H   H112      1.0  0.90320  0.66430  0.15100  1.0000
  C   C149      1.0  0.56970  0.47960  0.73650  1.0000
  H   H113      1.0  0.53670  0.43420  0.72180  1.0000
  C   C150      1.0  0.78780  0.20040  0.21920  1.0000
  C   C151      1.0  0.73150  0.22350  0.15890  1.0000
  H   H114      1.0  0.69700  0.18730  0.15570  1.0000
  C   C152      1.0  0.83410  0.33200  0.16820  1.0000
  H   H115      1.0  0.86900  0.36700  0.17120  1.0000
  C   C153      1.0  0.83940  0.25490  0.22360  1.0000
  H   H116      1.0  0.87750  0.23890  0.26430  1.0000
  C   C154      1.0  0.74710  0.06480  0.27300  1.0000
  H   H117      1.0  0.72790  0.03510  0.21920  1.0000
  H   H118      1.0  0.76060  0.00980  0.31280  1.0000
  H   H119      1.0  0.71830  0.10830  0.28310  1.0000
  O   O8        1.0  0.29850  0.62610  0.27860  1.0000
  N   N22       1.0  0.43410  0.35730  0.05970  1.0000
  N   N23       1.0  0.07230  0.04600  0.68020  1.0000
  N   N24       1.0  0.25550  0.11420  0.94220  1.0000
  C   C155      1.0  0.21560  0.03300  0.92160  1.0000
  C   C156      1.0  0.22200  0.94920  0.97330  1.0000
  H   H120      1.0  0.19410  0.89440  0.95650  1.0000
  C   C157      1.0  0.26980  0.94690  0.05000  1.0000
  C   C158      1.0  0.34030  0.27360  0.97580  1.0000
  H   H121      1.0  0.30620  0.27220  0.92620  1.0000
  C   C159      1.0  0.11440  0.97600  0.81570  1.0000
  H   H122      1.0  0.11020  0.93020  0.85340  1.0000
  C   C160      1.0  0.30980  0.03220  0.07230  1.0000
  H   H123      1.0  0.34140  0.03560  0.12420  1.0000
  C   C161      1.0  0.30150  0.11170  0.01600  1.0000
  C   C162      1.0  0.16480  0.03980  0.83870  1.0000
  C   C163      1.0  0.38360  0.34980  0.98970  1.0000
  H   H124      1.0  0.37770  0.39870  0.94880  1.0000
  C   C164      1.0  0.34660  0.19910  0.03400  1.0000
  C   C165      1.0  0.43910  0.28670  0.11760  1.0000
  H   H125      1.0  0.47310  0.29070  0.16720  1.0000
  C   C166      1.0  0.27670  0.85910  0.10680  1.0000
  C   C167      1.0  0.12050  0.10940  0.70310  1.0000
  H   H126      1.0  0.12310  0.15580  0.66480  1.0000
  C   C168      1.0  0.16730  0.10980  0.78180  1.0000
  H   H127      1.0  0.19960  0.15660  0.79550  1.0000
  C   C169      1.0  0.22640  0.80130  0.10280  1.0000
  H   H128      1.0  0.18830  0.81530  0.06130  1.0000
  C   C170      1.0  0.39760  0.20980  0.10810  1.0000
  H   H129      1.0  0.40320  0.16430  0.15100  1.0000
  C   C171      1.0  0.06970  0.97960  0.73650  1.0000
  H   H130      1.0  0.03670  0.93420  0.72180  1.0000
  C   C172      1.0  0.28780  0.70040  0.21920  1.0000
  C   C173      1.0  0.23150  0.72350  0.15890  1.0000
  H   H131      1.0  0.19700  0.68730  0.15570  1.0000
  C   C174      1.0  0.33410  0.83200  0.16820  1.0000
  H   H132      1.0  0.36900  0.86700  0.17120  1.0000
  C   C175      1.0  0.33940  0.75490  0.22360  1.0000
  H   H133      1.0  0.37750  0.73890  0.26430  1.0000
  C   C176      1.0  0.24710  0.56480  0.27300  1.0000
  H   H134      1.0  0.22790  0.53510  0.21920  1.0000
  H   H135      1.0  0.26060  0.50980  0.31280  1.0000
  H   H136      1.0  0.21830  0.60830  0.28310  1.0000
  I   I1        1.0  0.45601  0.64182  0.03344  1.0000
  Cu  Cu1       1.0  0.50401  0.45324  0.06714  1.0000
  I   I2        1.0  0.04399  0.14182  0.46656  1.0000
  Cu  Cu2       1.0  0.99599  0.95324  0.43286  1.0000
  I   I3        1.0  0.45601  0.35818  0.53344  1.0000
  Cu  Cu3       1.0  0.50401  0.54676  0.56714  1.0000
  I   I4        1.0  0.54399  0.64182  0.46656  1.0000
  Cu  Cu4       1.0  0.49599  0.45324  0.43286  1.0000
  I   I5        1.0  0.04399  0.85818  0.96656  1.0000
  Cu  Cu5       1.0  0.99599  0.04676  0.93286  1.0000
  I   I6        1.0  0.95601  0.14182  0.03344  1.0000
  Cu  Cu6       1.0  0.00401  0.95324  0.06714  1.0000
  I   I7        1.0  0.54399  0.35818  0.96656  1.0000
  Cu  Cu7       1.0  0.49599  0.54676  0.93286  1.0000
  I   I8        1.0  0.95601  0.85818  0.53344  1.0000
  Cu  Cu8       1.0  0.00401  0.04676  0.56714  1.0000
