data_image0
_chemical_formula_structural       NON2CHC4HCHCHC4HC2HCHCHCHCHCHCHCHCHCH3NON2CHC4HCHCHC4HC2HCHCHCHCHCHCHCHCHCH4CHCH3NON2CHC4HCHCHC4HC2HCHCHCHCHCHCHCNON2CHC4HCHCHC4HC2HCHCHCHCHCHCHCHCHCH3NON2CHC4HCHCHC4HC2HCHCHCHCHCHCHCHCHCH3CHCHCHCHCHCH3NON2CHC4HCHCHC4HC2HCHCHCHNON2CHC4HCHCHC4HC2HCHCHCHCHCHCHCHCHCH3NON2CHC4HCHCHC4HC2HCHCHCHCHCHCHCHCHCH3ICuICuICuICuICuICuICuICu
_chemical_formula_sum              "N24 O8 C176 H136 I8 Cu8"
_cell_length_a       24.2029
_cell_length_b       12.4222
_cell_length_c       17.863
_cell_angle_alpha    90
_cell_angle_beta     113.197
_cell_angle_gamma    90

_space_group_name_H-M_alt    "P 1"
_space_group_IT_number       1

loop_
  _space_group_symop_operation_xyz
  'x, y, z'

loop_
  _atom_site_type_symbol
  _atom_site_label
  _atom_site_symmetry_multiplicity
  _atom_site_fract_x
  _atom_site_fract_y
  _atom_site_fract_z
  _atom_site_occupancy
  N   N1        1.0  0.25050  0.11290  0.43310  1.0000
  O   O1        1.0  0.29010  0.61590  0.77440  1.0000
  N   N2        1.0  0.43080  0.35590  0.55220  1.0000
  N   N3        1.0  0.06870  0.05090  0.17710  1.0000
  C   C1        1.0  0.21480  0.94620  0.46560  1.0000
  H   H1        1.0  0.18610  0.89180  0.44920  1.0000
  C   C2        1.0  0.26270  0.94050  0.54150  1.0000
  C   C3        1.0  0.15910  0.04140  0.33140  1.0000
  C   C4        1.0  0.29660  0.10770  0.50630  1.0000
  C   C5        1.0  0.16050  0.11390  0.27470  1.0000
  H   H2        1.0  0.19260  0.16150  0.28750  1.0000
  C   C6        1.0  0.30390  0.02660  0.55990  1.0000
  H   H3        1.0  0.33660  0.02780  0.60980  1.0000
  C   C7        1.0  0.11100  0.97300  0.31080  1.0000
  H   H4        1.0  0.10800  0.92320  0.34790  1.0000
  C   C8        1.0  0.21010  0.03380  0.41450  1.0000
  C   C9        1.0  0.34170  0.19560  0.52340  1.0000
  C   C10       1.0  0.26970  0.85110  0.59910  1.0000
  C   C11       1.0  0.38960  0.20740  0.59810  1.0000
  H   H5        1.0  0.39360  0.16090  0.64070  1.0000
  C   C12       1.0  0.27960  0.69530  0.71380  1.0000
  C   C13       1.0  0.22040  0.78970  0.59410  1.0000
  H   H6        1.0  0.18330  0.80190  0.55200  1.0000
  C   C14       1.0  0.11540  0.11660  0.20010  1.0000
  H   H7        1.0  0.11730  0.16730  0.16290  1.0000
  C   C15       1.0  0.06650  0.98080  0.23220  1.0000
  H   H8        1.0  0.03370  0.93470  0.21760  1.0000
  C   C16       1.0  0.33880  0.27040  0.46520  1.0000
  H   H9        1.0  0.30670  0.26820  0.41470  1.0000
  C   C17       1.0  0.43120  0.28760  0.60920  1.0000
  H   H10       1.0  0.46200  0.29420  0.66060  1.0000
  C   C18       1.0  0.38200  0.34830  0.47950  1.0000
  H   H11       1.0  0.37800  0.39750  0.43850  1.0000
  C   C19       1.0  0.22580  0.71140  0.65070  1.0000
  H   H12       1.0  0.19280  0.66940  0.64600  1.0000
  C   C20       1.0  0.32430  0.83220  0.66280  1.0000
  H   H13       1.0  0.35770  0.87310  0.66780  1.0000
  C   C21       1.0  0.32910  0.75150  0.71960  1.0000
  H   H14       1.0  0.36610  0.73650  0.76120  1.0000
  C   C22       1.0  0.24140  0.54860  0.76580  1.0000
  H   H15       1.0  0.20890  0.59110  0.76790  1.0000
  H   H16       1.0  0.25360  0.49680  0.80920  1.0000
  H   H17       1.0  0.22840  0.51180  0.71450  1.0000
  N   N4        1.0  0.75050  0.61290  0.43310  1.0000
  O   O2        1.0  0.79010  0.11590  0.77440  1.0000
  N   N5        1.0  0.93080  0.85590  0.55220  1.0000
  N   N6        1.0  0.56870  0.55090  0.17710  1.0000
  C   C23       1.0  0.71480  0.44620  0.46560  1.0000
  H   H18       1.0  0.68610  0.39180  0.44920  1.0000
  C   C24       1.0  0.76270  0.44050  0.54150  1.0000
  C   C25       1.0  0.65910  0.54140  0.33140  1.0000
  C   C26       1.0  0.79660  0.60770  0.50630  1.0000
  C   C27       1.0  0.66050  0.61390  0.27470  1.0000
  H   H19       1.0  0.69260  0.66150  0.28750  1.0000
  C   C28       1.0  0.80390  0.52660  0.55990  1.0000
  H   H20       1.0  0.83660  0.52780  0.60980  1.0000
  C   C29       1.0  0.61100  0.47300  0.31080  1.0000
  H   H21       1.0  0.60800  0.42320  0.34790  1.0000
  C   C30       1.0  0.71010  0.53380  0.41450  1.0000
  C   C31       1.0  0.84170  0.69560  0.52340  1.0000
  C   C32       1.0  0.76970  0.35110  0.59910  1.0000
  C   C33       1.0  0.88960  0.70740  0.59810  1.0000
  H   H22       1.0  0.89360  0.66090  0.64070  1.0000
  C   C34       1.0  0.77960  0.19530  0.71380  1.0000
  C   C35       1.0  0.72040  0.28970  0.59410  1.0000
  H   H23       1.0  0.68330  0.30190  0.55200  1.0000
  C   C36       1.0  0.61540  0.61660  0.20010  1.0000
  H   H24       1.0  0.61730  0.66730  0.16290  1.0000
  C   C37       1.0  0.56650  0.48080  0.23220  1.0000
  H   H25       1.0  0.53370  0.43470  0.21760  1.0000
  C   C38       1.0  0.83880  0.77040  0.46520  1.0000
  H   H26       1.0  0.80670  0.76820  0.41470  1.0000
  C   C39       1.0  0.93120  0.78760  0.60920  1.0000
  H   H27       1.0  0.96200  0.79420  0.66060  1.0000
  C   C40       1.0  0.88200  0.84830  0.47950  1.0000
  H   H28       1.0  0.87800  0.89750  0.43850  1.0000
  C   C41       1.0  0.72580  0.21140  0.65070  1.0000
  H   H29       1.0  0.69280  0.16940  0.64600  1.0000
  C   C42       1.0  0.82430  0.33220  0.66280  1.0000
  H   H30       1.0  0.85770  0.37310  0.66780  1.0000
  C   C43       1.0  0.82910  0.25150  0.71960  1.0000
  H   H31       1.0  0.86610  0.23650  0.76120  1.0000
  C   C44       1.0  0.74140  0.04860  0.76580  1.0000
  H   H32       1.0  0.70890  0.09110  0.76790  1.0000
  H   H33       1.0  0.75360  0.99680  0.80920  1.0000
  H   H34       1.0  0.72840  0.01180  0.71450  1.0000
  H   H35       1.0  0.64230  0.87310  0.83220  1.0000
  C   C45       1.0  0.67090  0.75150  0.78040  1.0000
  H   H36       1.0  0.63390  0.73650  0.73880  1.0000
  C   C46       1.0  0.75860  0.54860  0.73420  1.0000
  H   H37       1.0  0.79110  0.59110  0.73210  1.0000
  H   H38       1.0  0.74640  0.49680  0.69080  1.0000
  H   H39       1.0  0.77160  0.51180  0.78550  1.0000
  N   N7        1.0  0.74950  0.11290  0.06690  1.0000
  O   O3        1.0  0.70990  0.61590  0.72560  1.0000
  N   N8        1.0  0.56920  0.35590  0.94780  1.0000
  N   N9        1.0  0.93130  0.05090  0.32290  1.0000
  C   C47       1.0  0.78520  0.94620  0.03440  1.0000
  H   H40       1.0  0.81390  0.89180  0.05080  1.0000
  C   C48       1.0  0.73730  0.94050  0.95850  1.0000
  C   C49       1.0  0.84090  0.04140  0.16860  1.0000
  C   C50       1.0  0.70340  0.10770  0.99370  1.0000
  C   C51       1.0  0.83950  0.11390  0.22530  1.0000
  H   H41       1.0  0.80740  0.16150  0.21250  1.0000
  C   C52       1.0  0.69610  0.02660  0.94010  1.0000
  H   H42       1.0  0.66340  0.02780  0.89020  1.0000
  C   C53       1.0  0.88900  0.97300  0.18920  1.0000
  H   H43       1.0  0.89200  0.92320  0.15210  1.0000
  C   C54       1.0  0.78990  0.03380  0.08550  1.0000
  C   C55       1.0  0.65830  0.19560  0.97660  1.0000
  C   C56       1.0  0.73030  0.85110  0.90090  1.0000
  C   C57       1.0  0.61040  0.20740  0.90190  1.0000
  H   H44       1.0  0.60640  0.16090  0.85930  1.0000
  C   C58       1.0  0.72040  0.69530  0.78620  1.0000
  C   C59       1.0  0.77960  0.78970  0.90590  1.0000
  H   H45       1.0  0.81670  0.80190  0.94800  1.0000
  C   C60       1.0  0.88460  0.11660  0.29990  1.0000
  H   H46       1.0  0.88270  0.16730  0.33710  1.0000
  C   C61       1.0  0.93350  0.98080  0.26780  1.0000
  H   H47       1.0  0.96630  0.93470  0.28240  1.0000
  C   C62       1.0  0.66120  0.27040  0.03480  1.0000
  H   H48       1.0  0.69330  0.26820  0.08530  1.0000
  C   C63       1.0  0.56880  0.28760  0.89080  1.0000
  H   H49       1.0  0.53800  0.29420  0.83940  1.0000
  C   C64       1.0  0.61800  0.34830  0.02050  1.0000
  H   H50       1.0  0.62200  0.39750  0.06150  1.0000
  C   C65       1.0  0.77420  0.71140  0.84930  1.0000
  H   H51       1.0  0.80720  0.66940  0.85400  1.0000
  C   C66       1.0  0.67570  0.83220  0.83720  1.0000
  N   N10       1.0  0.24950  0.61290  0.06690  1.0000
  O   O4        1.0  0.20990  0.11590  0.72560  1.0000
  N   N11       1.0  0.06920  0.85590  0.94780  1.0000
  N   N12       1.0  0.43130  0.55090  0.32290  1.0000
  C   C67       1.0  0.28520  0.44620  0.03440  1.0000
  H   H52       1.0  0.31390  0.39180  0.05080  1.0000
  C   C68       1.0  0.23730  0.44050  0.95850  1.0000
  C   C69       1.0  0.34090  0.54140  0.16860  1.0000
  C   C70       1.0  0.20340  0.60770  0.99370  1.0000
  C   C71       1.0  0.33950  0.61390  0.22530  1.0000
  H   H53       1.0  0.30740  0.66150  0.21250  1.0000
  C   C72       1.0  0.19610  0.52660  0.94010  1.0000
  H   H54       1.0  0.16340  0.52780  0.89020  1.0000
  C   C73       1.0  0.38900  0.47300  0.18920  1.0000
  H   H55       1.0  0.39200  0.42320  0.15210  1.0000
  C   C74       1.0  0.28990  0.53380  0.08550  1.0000
  C   C75       1.0  0.15830  0.69560  0.97660  1.0000
  C   C76       1.0  0.23030  0.35110  0.90090  1.0000
  C   C77       1.0  0.11040  0.70740  0.90190  1.0000
  H   H56       1.0  0.10640  0.66090  0.85930  1.0000
  C   C78       1.0  0.22040  0.19530  0.78620  1.0000
  C   C79       1.0  0.27960  0.28970  0.90590  1.0000
  H   H57       1.0  0.31670  0.30190  0.94800  1.0000
  C   C80       1.0  0.38460  0.61660  0.29990  1.0000
  H   H58       1.0  0.38270  0.66730  0.33710  1.0000
  C   C81       1.0  0.43350  0.48080  0.26780  1.0000
  H   H59       1.0  0.46630  0.43470  0.28240  1.0000
  C   C82       1.0  0.16120  0.77040  0.03480  1.0000
  H   H60       1.0  0.19330  0.76820  0.08530  1.0000
  C   C83       1.0  0.06880  0.78760  0.89080  1.0000
  H   H61       1.0  0.03800  0.79420  0.83940  1.0000
  C   C84       1.0  0.11800  0.84830  0.02050  1.0000
  H   H62       1.0  0.12200  0.89750  0.06150  1.0000
  C   C85       1.0  0.27420  0.21140  0.84930  1.0000
  H   H63       1.0  0.30720  0.16940  0.85400  1.0000
  C   C86       1.0  0.17570  0.33220  0.83720  1.0000
  H   H64       1.0  0.14230  0.37310  0.83220  1.0000
  C   C87       1.0  0.17090  0.25150  0.78040  1.0000
  H   H65       1.0  0.13390  0.23650  0.73880  1.0000
  C   C88       1.0  0.25860  0.04860  0.73420  1.0000
  H   H66       1.0  0.29110  0.09110  0.73210  1.0000
  H   H67       1.0  0.24640  0.99680  0.69080  1.0000
  H   H68       1.0  0.27160  0.01180  0.78550  1.0000
  N   N13       1.0  0.74950  0.88710  0.56690  1.0000
  O   O5        1.0  0.70990  0.38410  0.22560  1.0000
  N   N14       1.0  0.56920  0.64410  0.44780  1.0000
  N   N15       1.0  0.93130  0.94910  0.82290  1.0000
  C   C89       1.0  0.78520  0.05380  0.53440  1.0000
  H   H69       1.0  0.81390  0.10820  0.55080  1.0000
  C   C90       1.0  0.73730  0.05950  0.45850  1.0000
  C   C91       1.0  0.84090  0.95860  0.66860  1.0000
  C   C92       1.0  0.70340  0.89230  0.49370  1.0000
  C   C93       1.0  0.83950  0.88610  0.72530  1.0000
  H   H70       1.0  0.80740  0.83850  0.71250  1.0000
  C   C94       1.0  0.69610  0.97340  0.44010  1.0000
  H   H71       1.0  0.66340  0.97220  0.39020  1.0000
  C   C95       1.0  0.88900  0.02700  0.68920  1.0000
  H   H72       1.0  0.89200  0.07680  0.65210  1.0000
  C   C96       1.0  0.78990  0.96620  0.58550  1.0000
  C   C97       1.0  0.65830  0.80440  0.47660  1.0000
  C   C98       1.0  0.73030  0.14890  0.40090  1.0000
  C   C99       1.0  0.61040  0.79260  0.40190  1.0000
  H   H73       1.0  0.60640  0.83910  0.35930  1.0000
  C   C100      1.0  0.72040  0.30470  0.28620  1.0000
  C   C101      1.0  0.77960  0.21030  0.40590  1.0000
  H   H74       1.0  0.81670  0.19810  0.44800  1.0000
  C   C102      1.0  0.88460  0.88340  0.79990  1.0000
  H   H75       1.0  0.88270  0.83270  0.83710  1.0000
  C   C103      1.0  0.93350  0.01920  0.76780  1.0000
  H   H76       1.0  0.96630  0.06530  0.78240  1.0000
  C   C104      1.0  0.66120  0.72960  0.53480  1.0000
  H   H77       1.0  0.69330  0.73180  0.58530  1.0000
  C   C105      1.0  0.56880  0.71240  0.39080  1.0000
  H   H78       1.0  0.53800  0.70580  0.33940  1.0000
  C   C106      1.0  0.61800  0.65170  0.52050  1.0000
  H   H79       1.0  0.62200  0.60250  0.56150  1.0000
  C   C107      1.0  0.77420  0.28860  0.34930  1.0000
  H   H80       1.0  0.80720  0.33060  0.35400  1.0000
  C   C108      1.0  0.67570  0.16780  0.33720  1.0000
  H   H81       1.0  0.64230  0.12690  0.33220  1.0000
  C   C109      1.0  0.67090  0.24850  0.28040  1.0000
  H   H82       1.0  0.63390  0.26350  0.23880  1.0000
  C   C110      1.0  0.75860  0.45140  0.23420  1.0000
  H   H83       1.0  0.79110  0.40890  0.23210  1.0000
  H   H84       1.0  0.74640  0.50320  0.19080  1.0000
  H   H85       1.0  0.77160  0.48820  0.28550  1.0000
  C   C111      1.0  0.06880  0.21240  0.39080  1.0000
  H   H86       1.0  0.03800  0.20580  0.33940  1.0000
  C   C112      1.0  0.11800  0.15170  0.52050  1.0000
  H   H87       1.0  0.12200  0.10250  0.56150  1.0000
  C   C113      1.0  0.27420  0.78860  0.34930  1.0000
  H   H88       1.0  0.30720  0.83060  0.35400  1.0000
  C   C114      1.0  0.17570  0.66780  0.33720  1.0000
  H   H89       1.0  0.14230  0.62690  0.33220  1.0000
  C   C115      1.0  0.17090  0.74850  0.28040  1.0000
  H   H90       1.0  0.13390  0.76350  0.23880  1.0000
  C   C116      1.0  0.25860  0.95140  0.23420  1.0000
  H   H91       1.0  0.29110  0.90890  0.23210  1.0000
  H   H92       1.0  0.24640  0.00320  0.19080  1.0000
  H   H93       1.0  0.27160  0.98820  0.28550  1.0000
  N   N16       1.0  0.24950  0.38710  0.56690  1.0000
  O   O6        1.0  0.20990  0.88410  0.22560  1.0000
  N   N17       1.0  0.06920  0.14410  0.44780  1.0000
  N   N18       1.0  0.43130  0.44910  0.82290  1.0000
  C   C117      1.0  0.28520  0.55380  0.53440  1.0000
  H   H94       1.0  0.31390  0.60820  0.55080  1.0000
  C   C118      1.0  0.23730  0.55950  0.45850  1.0000
  C   C119      1.0  0.34090  0.45860  0.66860  1.0000
  C   C120      1.0  0.20340  0.39230  0.49370  1.0000
  C   C121      1.0  0.33950  0.38610  0.72530  1.0000
  H   H95       1.0  0.30740  0.33850  0.71250  1.0000
  C   C122      1.0  0.19610  0.47340  0.44010  1.0000
  H   H96       1.0  0.16340  0.47220  0.39020  1.0000
  C   C123      1.0  0.38900  0.52700  0.68920  1.0000
  H   H97       1.0  0.39200  0.57680  0.65210  1.0000
  C   C124      1.0  0.28990  0.46620  0.58550  1.0000
  C   C125      1.0  0.15830  0.30440  0.47660  1.0000
  C   C126      1.0  0.23030  0.64890  0.40090  1.0000
  C   C127      1.0  0.11040  0.29260  0.40190  1.0000
  H   H98       1.0  0.10640  0.33910  0.35930  1.0000
  C   C128      1.0  0.22040  0.80470  0.28620  1.0000
  C   C129      1.0  0.27960  0.71030  0.40590  1.0000
  H   H99       1.0  0.31670  0.69810  0.44800  1.0000
  C   C130      1.0  0.38460  0.38340  0.79990  1.0000
  H   H100      1.0  0.38270  0.33270  0.83710  1.0000
  C   C131      1.0  0.43350  0.51920  0.76780  1.0000
  H   H101      1.0  0.46630  0.56530  0.78240  1.0000
  C   C132      1.0  0.16120  0.22960  0.53480  1.0000
  H   H102      1.0  0.19330  0.23180  0.58530  1.0000
  N   N19       1.0  0.25050  0.88710  0.93310  1.0000
  O   O7        1.0  0.29010  0.38410  0.27440  1.0000
  N   N20       1.0  0.43080  0.64410  0.05220  1.0000
  N   N21       1.0  0.06870  0.94910  0.67710  1.0000
  C   C133      1.0  0.21480  0.05380  0.96560  1.0000
  H   H103      1.0  0.18610  0.10820  0.94920  1.0000
  C   C134      1.0  0.26270  0.05950  0.04150  1.0000
  C   C135      1.0  0.15910  0.95860  0.83140  1.0000
  C   C136      1.0  0.29660  0.89230  0.00630  1.0000
  C   C137      1.0  0.16050  0.88610  0.77470  1.0000
  H   H104      1.0  0.19260  0.83850  0.78750  1.0000
  C   C138      1.0  0.30390  0.97340  0.05990  1.0000
  H   H105      1.0  0.33660  0.97220  0.10980  1.0000
  C   C139      1.0  0.11100  0.02700  0.81080  1.0000
  H   H106      1.0  0.10800  0.07680  0.84790  1.0000
  C   C140      1.0  0.21010  0.96620  0.91450  1.0000
  C   C141      1.0  0.34170  0.80440  0.02340  1.0000
  C   C142      1.0  0.26970  0.14890  0.09910  1.0000
  C   C143      1.0  0.38960  0.79260  0.09810  1.0000
  H   H107      1.0  0.39360  0.83910  0.14070  1.0000
  C   C144      1.0  0.27960  0.30470  0.21380  1.0000
  C   C145      1.0  0.22040  0.21030  0.09410  1.0000
  H   H108      1.0  0.18330  0.19810  0.05200  1.0000
  C   C146      1.0  0.11540  0.88340  0.70010  1.0000
  H   H109      1.0  0.11730  0.83270  0.66290  1.0000
  C   C147      1.0  0.06650  0.01920  0.73220  1.0000
  H   H110      1.0  0.03370  0.06530  0.71760  1.0000
  C   C148      1.0  0.33880  0.72960  0.96520  1.0000
  H   H111      1.0  0.30670  0.73180  0.91470  1.0000
  C   C149      1.0  0.43120  0.71240  0.10920  1.0000
  H   H112      1.0  0.46200  0.70580  0.16060  1.0000
  C   C150      1.0  0.38200  0.65170  0.97950  1.0000
  H   H113      1.0  0.37800  0.60250  0.93850  1.0000
  C   C151      1.0  0.22580  0.28860  0.15070  1.0000
  H   H114      1.0  0.19280  0.33060  0.14600  1.0000
  C   C152      1.0  0.32430  0.16780  0.16280  1.0000
  H   H115      1.0  0.35770  0.12690  0.16780  1.0000
  C   C153      1.0  0.32910  0.24850  0.21960  1.0000
  H   H116      1.0  0.36610  0.26350  0.26120  1.0000
  C   C154      1.0  0.24140  0.45140  0.26580  1.0000
  H   H117      1.0  0.20890  0.40890  0.26790  1.0000
  H   H118      1.0  0.25360  0.50320  0.30920  1.0000
  H   H119      1.0  0.22840  0.48820  0.21450  1.0000
  N   N22       1.0  0.75050  0.38710  0.93310  1.0000
  O   O8        1.0  0.79010  0.88410  0.27440  1.0000
  N   N23       1.0  0.93080  0.14410  0.05220  1.0000
  N   N24       1.0  0.56870  0.44910  0.67710  1.0000
  C   C155      1.0  0.71480  0.55380  0.96560  1.0000
  H   H120      1.0  0.68610  0.60820  0.94920  1.0000
  C   C156      1.0  0.76270  0.55950  0.04150  1.0000
  C   C157      1.0  0.65910  0.45860  0.83140  1.0000
  C   C158      1.0  0.79660  0.39230  0.00630  1.0000
  C   C159      1.0  0.66050  0.38610  0.77470  1.0000
  H   H121      1.0  0.69260  0.33850  0.78750  1.0000
  C   C160      1.0  0.80390  0.47340  0.05990  1.0000
  H   H122      1.0  0.83660  0.47220  0.10980  1.0000
  C   C161      1.0  0.61100  0.52700  0.81080  1.0000
  H   H123      1.0  0.60800  0.57680  0.84790  1.0000
  C   C162      1.0  0.71010  0.46620  0.91450  1.0000
  C   C163      1.0  0.84170  0.30440  0.02340  1.0000
  C   C164      1.0  0.76970  0.64890  0.09910  1.0000
  C   C165      1.0  0.88960  0.29260  0.09810  1.0000
  H   H124      1.0  0.89360  0.33910  0.14070  1.0000
  C   C166      1.0  0.77960  0.80470  0.21380  1.0000
  C   C167      1.0  0.72040  0.71030  0.09410  1.0000
  H   H125      1.0  0.68330  0.69810  0.05200  1.0000
  C   C168      1.0  0.61540  0.38340  0.70010  1.0000
  H   H126      1.0  0.61730  0.33270  0.66290  1.0000
  C   C169      1.0  0.56650  0.51920  0.73220  1.0000
  H   H127      1.0  0.53370  0.56530  0.71760  1.0000
  C   C170      1.0  0.83880  0.22960  0.96520  1.0000
  H   H128      1.0  0.80670  0.23180  0.91470  1.0000
  C   C171      1.0  0.93120  0.21240  0.10920  1.0000
  H   H129      1.0  0.96200  0.20580  0.16060  1.0000
  C   C172      1.0  0.88200  0.15170  0.97950  1.0000
  H   H130      1.0  0.87800  0.10250  0.93850  1.0000
  C   C173      1.0  0.72580  0.78860  0.15070  1.0000
  H   H131      1.0  0.69280  0.83060  0.14600  1.0000
  C   C174      1.0  0.82430  0.66780  0.16280  1.0000
  H   H132      1.0  0.85770  0.62690  0.16780  1.0000
  C   C175      1.0  0.82910  0.74850  0.21960  1.0000
  H   H133      1.0  0.86610  0.76350  0.26120  1.0000
  C   C176      1.0  0.74140  0.95140  0.26580  1.0000
  H   H134      1.0  0.70890  0.90890  0.26790  1.0000
  H   H135      1.0  0.75360  0.00320  0.30920  1.0000
  H   H136      1.0  0.72840  0.98820  0.21450  1.0000
  I   I1        1.0  0.45719  0.64902  0.53448  1.0000
  Cu  Cu1       1.0  0.50086  0.45118  0.56476  1.0000
  I   I2        1.0  0.04281  0.14902  0.96552  1.0000
  Cu  Cu2       1.0  0.99914  0.95118  0.93524  1.0000
  I   I3        1.0  0.45719  0.35098  0.03448  1.0000
  Cu  Cu3       1.0  0.50086  0.54882  0.06476  1.0000
  I   I4        1.0  0.54281  0.64902  0.96552  1.0000
  Cu  Cu4       1.0  0.49914  0.45118  0.93524  1.0000
  I   I5        1.0  0.04281  0.85098  0.46552  1.0000
  Cu  Cu5       1.0  0.99914  0.04882  0.43524  1.0000
  I   I6        1.0  0.95719  0.14902  0.53448  1.0000
  Cu  Cu6       1.0  0.00086  0.95118  0.56476  1.0000
  I   I7        1.0  0.54281  0.35098  0.46552  1.0000
  Cu  Cu7       1.0  0.49914  0.54882  0.43524  1.0000
  I   I8        1.0  0.95719  0.85098  0.03448  1.0000
  Cu  Cu8       1.0  0.00086  0.04882  0.06476  1.0000
