data_image0
_chemical_formula_structural       PCH2CHCH3C2HCHCHCHCHNHO3PCH2CHCH3C2HCHCHCHCHNHO3PCH2CHCH3C2HCHCHCHCHNHO3PCH2CHCH3C2HCHCHCHCHNHO3PCH2CHCH3C2HCHCHCHCHNHO3PCH2CHCH3C2HCHCHCHCHNHO3Ni6PCH2CHCH3C2HCHCHCHCHNHO3PCH2CHCH3C2HCHCHCHCHNHO3PCH2CHCH3C2HCHCHCHCHNHO3PCH2CHCH3C2HCHCHCHCHNHO3PCH2CHCH3C2HCHCHCHCHNHO3PCH2CHCH3C2HCHCHCHCHNHO3Ni6
_chemical_formula_sum              "P12 C108 H144 N12 O36 Ni12"
_cell_length_a       18.1621
_cell_length_b       18.1621
_cell_length_c       12.336
_cell_angle_alpha    90
_cell_angle_beta     90
_cell_angle_gamma    120

_space_group_name_H-M_alt    "P 1"
_space_group_IT_number       1

loop_
  _space_group_symop_operation_xyz
  'x, y, z'

loop_
  _atom_site_type_symbol
  _atom_site_label
  _atom_site_symmetry_multiplicity
  _atom_site_fract_x
  _atom_site_fract_y
  _atom_site_fract_z
  _atom_site_occupancy
  P   P1        1.0  0.75872  0.77979  0.27020  1.0000
  C   C1        1.0  0.66220  0.70360  0.19945  1.0000
  H   H1        1.0  0.67030  0.65920  0.16795  1.0000
  H   H2        1.0  0.61550  0.67730  0.25060  1.0000
  C   C2        1.0  0.56590  0.68860  0.04400  1.0000
  H   H3        1.0  0.58430  0.65950  0.49320  1.0000
  C   C3        1.0  0.53870  0.74100  0.47825  1.0000
  H   H4        1.0  0.52130  0.77110  0.02610  1.0000
  H   H5        1.0  0.49200  0.70420  0.43215  1.0000
  H   H6        1.0  0.58550  0.78090  0.43455  1.0000
  C   C4        1.0  0.49190  0.62030  0.11025  1.0000
  C   C5        1.0  0.46040  0.64040  0.20200  1.0000
  H   H7        1.0  0.48410  0.69690  0.22290  1.0000
  C   C6        1.0  0.39520  0.57830  0.26200  1.0000
  H   H8        1.0  0.37630  0.59300  0.32395  1.0000
  C   C7        1.0  0.35800  0.49450  0.23100  1.0000
  H   H9        1.0  0.31420  0.45220  0.27170  1.0000
  C   C8        1.0  0.38660  0.47450  0.13860  1.0000
  H   H10       1.0  0.36050  0.41820  0.11585  1.0000
  C   C9        1.0  0.45350  0.53620  0.07865  1.0000
  H   H11       1.0  0.47250  0.52100  0.01725  1.0000
  N   N1        1.0  0.64110  0.74640  0.11295  1.0000
  H   H12       1.0  0.62590  0.77980  0.14840  1.0000
  O   O1        1.0  0.80810  0.84980  0.18650  1.0000
  O   O2        1.0  0.72920  0.81160  0.36685  1.0000
  O   O3        1.0  0.80670  0.73490  0.30555  1.0000
  P   P2        1.0  0.22021  0.97893  0.27020  1.0000
  C   C10       1.0  0.29640  0.95860  0.19945  1.0000
  H   H13       1.0  0.34080  0.01110  0.16795  1.0000
  H   H14       1.0  0.32270  0.93820  0.25060  1.0000
  C   C11       1.0  0.31140  0.87730  0.04400  1.0000
  H   H15       1.0  0.34050  0.92480  0.49320  1.0000
  C   C12       1.0  0.25900  0.79770  0.47825  1.0000
  H   H16       1.0  0.22890  0.75020  0.02610  1.0000
  H   H17       1.0  0.29580  0.78780  0.43215  1.0000
  H   H18       1.0  0.21910  0.80460  0.43455  1.0000
  C   C13       1.0  0.37970  0.87160  0.11025  1.0000
  C   C14       1.0  0.35960  0.82000  0.20200  1.0000
  H   H19       1.0  0.30310  0.78720  0.22290  1.0000
  C   C15       1.0  0.42170  0.81690  0.26200  1.0000
  H   H20       1.0  0.40700  0.78330  0.32395  1.0000
  C   C16       1.0  0.50550  0.86350  0.23100  1.0000
  H   H21       1.0  0.54780  0.86200  0.27170  1.0000
  C   C17       1.0  0.52550  0.91210  0.13860  1.0000
  H   H22       1.0  0.58180  0.94230  0.11585  1.0000
  C   C18       1.0  0.46380  0.91730  0.07865  1.0000
  H   H23       1.0  0.47900  0.95150  0.01725  1.0000
  N   N2        1.0  0.25360  0.89470  0.11295  1.0000
  H   H24       1.0  0.22020  0.84610  0.14840  1.0000
  O   O4        1.0  0.15020  0.95830  0.18650  1.0000
  O   O5        1.0  0.18840  0.91760  0.36685  1.0000
  O   O6        1.0  0.26510  0.07180  0.30555  1.0000
  P   P3        1.0  0.02107  0.24128  0.27020  1.0000
  C   C19       1.0  0.04140  0.33780  0.19945  1.0000
  H   H25       1.0  0.98890  0.32970  0.16795  1.0000
  H   H26       1.0  0.06180  0.38450  0.25060  1.0000
  C   C20       1.0  0.12270  0.43410  0.04400  1.0000
  H   H27       1.0  0.07520  0.41570  0.49320  1.0000
  C   C21       1.0  0.20230  0.46130  0.47825  1.0000
  H   H28       1.0  0.24980  0.47870  0.02610  1.0000
  H   H29       1.0  0.21220  0.50800  0.43215  1.0000
  H   H30       1.0  0.19540  0.41450  0.43455  1.0000
  C   C22       1.0  0.12840  0.50810  0.11025  1.0000
  C   C23       1.0  0.18000  0.53960  0.20200  1.0000
  H   H31       1.0  0.21280  0.51590  0.22290  1.0000
  C   C24       1.0  0.18310  0.60480  0.26200  1.0000
  H   H32       1.0  0.21670  0.62370  0.32395  1.0000
  C   C25       1.0  0.13650  0.64200  0.23100  1.0000
  H   H33       1.0  0.13800  0.68580  0.27170  1.0000
  C   C26       1.0  0.08790  0.61340  0.13860  1.0000
  H   H34       1.0  0.05770  0.63950  0.11585  1.0000
  C   C27       1.0  0.08270  0.54650  0.07865  1.0000
  H   H35       1.0  0.04850  0.52750  0.01725  1.0000
  N   N3        1.0  0.10530  0.35890  0.11295  1.0000
  H   H36       1.0  0.15390  0.37410  0.14840  1.0000
  O   O7        1.0  0.04170  0.19190  0.18650  1.0000
  O   O8        1.0  0.08240  0.27080  0.36685  1.0000
  O   O9        1.0  0.92820  0.19330  0.30555  1.0000
  P   P4        1.0  0.24128  0.22021  0.02020  1.0000
  C   C28       1.0  0.33780  0.29640  0.44945  1.0000
  H   H37       1.0  0.32970  0.34080  0.41795  1.0000
  H   H38       1.0  0.38450  0.32270  0.00060  1.0000
  C   C29       1.0  0.43410  0.31140  0.29400  1.0000
  H   H39       1.0  0.41570  0.34050  0.24320  1.0000
  C   C30       1.0  0.46130  0.25900  0.22825  1.0000
  H   H40       1.0  0.47870  0.22890  0.27610  1.0000
  H   H41       1.0  0.50800  0.29580  0.18215  1.0000
  H   H42       1.0  0.41450  0.21910  0.18455  1.0000
  C   C31       1.0  0.50810  0.37970  0.36025  1.0000
  C   C32       1.0  0.53960  0.35960  0.45200  1.0000
  H   H43       1.0  0.51590  0.30310  0.47290  1.0000
  C   C33       1.0  0.60480  0.42170  0.01200  1.0000
  H   H44       1.0  0.62370  0.40700  0.07395  1.0000
  C   C34       1.0  0.64200  0.50550  0.48100  1.0000
  H   H45       1.0  0.68580  0.54780  0.02170  1.0000
  C   C35       1.0  0.61340  0.52550  0.38860  1.0000
  H   H46       1.0  0.63950  0.58180  0.36585  1.0000
  C   C36       1.0  0.54650  0.46380  0.32865  1.0000
  H   H47       1.0  0.52750  0.47900  0.26725  1.0000
  N   N4        1.0  0.35890  0.25360  0.36295  1.0000
  H   H48       1.0  0.37410  0.22020  0.39840  1.0000
  O   O10       1.0  0.19190  0.15020  0.43650  1.0000
  O   O11       1.0  0.27080  0.18840  0.11685  1.0000
  O   O12       1.0  0.19330  0.26510  0.05555  1.0000
  P   P5        1.0  0.77979  0.02107  0.02020  1.0000
  C   C37       1.0  0.70360  0.04140  0.44945  1.0000
  H   H49       1.0  0.65920  0.98890  0.41795  1.0000
  H   H50       1.0  0.67730  0.06180  0.00060  1.0000
  C   C38       1.0  0.68860  0.12270  0.29400  1.0000
  H   H51       1.0  0.65950  0.07520  0.24320  1.0000
  C   C39       1.0  0.74100  0.20230  0.22825  1.0000
  H   H52       1.0  0.77110  0.24980  0.27610  1.0000
  H   H53       1.0  0.70420  0.21220  0.18215  1.0000
  H   H54       1.0  0.78090  0.19540  0.18455  1.0000
  C   C40       1.0  0.62030  0.12840  0.36025  1.0000
  C   C41       1.0  0.64040  0.18000  0.45200  1.0000
  H   H55       1.0  0.69690  0.21280  0.47290  1.0000
  C   C42       1.0  0.57830  0.18310  0.01200  1.0000
  H   H56       1.0  0.59300  0.21670  0.07395  1.0000
  C   C43       1.0  0.49450  0.13650  0.48100  1.0000
  H   H57       1.0  0.45220  0.13800  0.02170  1.0000
  C   C44       1.0  0.47450  0.08790  0.38860  1.0000
  H   H58       1.0  0.41820  0.05770  0.36585  1.0000
  C   C45       1.0  0.53620  0.08270  0.32865  1.0000
  H   H59       1.0  0.52100  0.04850  0.26725  1.0000
  N   N5        1.0  0.74640  0.10530  0.36295  1.0000
  H   H60       1.0  0.77980  0.15390  0.39840  1.0000
  O   O13       1.0  0.84980  0.04170  0.43650  1.0000
  O   O14       1.0  0.81160  0.08240  0.11685  1.0000
  O   O15       1.0  0.73490  0.92820  0.05555  1.0000
  P   P6        1.0  0.97893  0.75872  0.02020  1.0000
  C   C46       1.0  0.95860  0.66220  0.44945  1.0000
  H   H61       1.0  0.01110  0.67030  0.41795  1.0000
  H   H62       1.0  0.93820  0.61550  0.00060  1.0000
  C   C47       1.0  0.87730  0.56590  0.29400  1.0000
  H   H63       1.0  0.92480  0.58430  0.24320  1.0000
  C   C48       1.0  0.79770  0.53870  0.22825  1.0000
  H   H64       1.0  0.75020  0.52130  0.27610  1.0000
  H   H65       1.0  0.78780  0.49200  0.18215  1.0000
  H   H66       1.0  0.80460  0.58550  0.18455  1.0000
  C   C49       1.0  0.87160  0.49190  0.36025  1.0000
  C   C50       1.0  0.82000  0.46040  0.45200  1.0000
  H   H67       1.0  0.78720  0.48410  0.47290  1.0000
  C   C51       1.0  0.81690  0.39520  0.01200  1.0000
  H   H68       1.0  0.78330  0.37630  0.07395  1.0000
  C   C52       1.0  0.86350  0.35800  0.48100  1.0000
  H   H69       1.0  0.86200  0.31420  0.02170  1.0000
  C   C53       1.0  0.91210  0.38660  0.38860  1.0000
  H   H70       1.0  0.94230  0.36050  0.36585  1.0000
  C   C54       1.0  0.91730  0.45350  0.32865  1.0000
  H   H71       1.0  0.95150  0.47250  0.26725  1.0000
  N   N6        1.0  0.89470  0.64110  0.36295  1.0000
  H   H72       1.0  0.84610  0.62590  0.39840  1.0000
  O   O16       1.0  0.95830  0.80810  0.43650  1.0000
  O   O17       1.0  0.91760  0.72920  0.11685  1.0000
  O   O18       1.0  0.07180  0.80670  0.05555  1.0000
  Ni  Ni1       1.0  0.76022  0.82914  0.03166  1.0000
  Ni  Ni2       1.0  0.17086  0.93108  0.03166  1.0000
  Ni  Ni3       1.0  0.06892  0.23978  0.03166  1.0000
  Ni  Ni4       1.0  0.23978  0.17086  0.28166  1.0000
  Ni  Ni5       1.0  0.82914  0.06892  0.28166  1.0000
  Ni  Ni6       1.0  0.93108  0.76022  0.28166  1.0000
  P   P7        1.0  0.75872  0.77979  0.77020  1.0000
  C   C55       1.0  0.66220  0.70360  0.69945  1.0000
  H   H73       1.0  0.67030  0.65920  0.66795  1.0000
  H   H74       1.0  0.61550  0.67730  0.75060  1.0000
  C   C56       1.0  0.56590  0.68860  0.54400  1.0000
  H   H75       1.0  0.58430  0.65950  0.99320  1.0000
  C   C57       1.0  0.53870  0.74100  0.97825  1.0000
  H   H76       1.0  0.52130  0.77110  0.52610  1.0000
  H   H77       1.0  0.49200  0.70420  0.93215  1.0000
  H   H78       1.0  0.58550  0.78090  0.93455  1.0000
  C   C58       1.0  0.49190  0.62030  0.61025  1.0000
  C   C59       1.0  0.46040  0.64040  0.70200  1.0000
  H   H79       1.0  0.48410  0.69690  0.72290  1.0000
  C   C60       1.0  0.39520  0.57830  0.76200  1.0000
  H   H80       1.0  0.37630  0.59300  0.82395  1.0000
  C   C61       1.0  0.35800  0.49450  0.73100  1.0000
  H   H81       1.0  0.31420  0.45220  0.77170  1.0000
  C   C62       1.0  0.38660  0.47450  0.63860  1.0000
  H   H82       1.0  0.36050  0.41820  0.61585  1.0000
  C   C63       1.0  0.45350  0.53620  0.57865  1.0000
  H   H83       1.0  0.47250  0.52100  0.51725  1.0000
  N   N7        1.0  0.64110  0.74640  0.61295  1.0000
  H   H84       1.0  0.62590  0.77980  0.64840  1.0000
  O   O19       1.0  0.80810  0.84980  0.68650  1.0000
  O   O20       1.0  0.72920  0.81160  0.86685  1.0000
  O   O21       1.0  0.80670  0.73490  0.80555  1.0000
  P   P8        1.0  0.22021  0.97893  0.77020  1.0000
  C   C64       1.0  0.29640  0.95860  0.69945  1.0000
  H   H85       1.0  0.34080  0.01110  0.66795  1.0000
  H   H86       1.0  0.32270  0.93820  0.75060  1.0000
  C   C65       1.0  0.31140  0.87730  0.54400  1.0000
  H   H87       1.0  0.34050  0.92480  0.99320  1.0000
  C   C66       1.0  0.25900  0.79770  0.97825  1.0000
  H   H88       1.0  0.22890  0.75020  0.52610  1.0000
  H   H89       1.0  0.29580  0.78780  0.93215  1.0000
  H   H90       1.0  0.21910  0.80460  0.93455  1.0000
  C   C67       1.0  0.37970  0.87160  0.61025  1.0000
  C   C68       1.0  0.35960  0.82000  0.70200  1.0000
  H   H91       1.0  0.30310  0.78720  0.72290  1.0000
  C   C69       1.0  0.42170  0.81690  0.76200  1.0000
  H   H92       1.0  0.40700  0.78330  0.82395  1.0000
  C   C70       1.0  0.50550  0.86350  0.73100  1.0000
  H   H93       1.0  0.54780  0.86200  0.77170  1.0000
  C   C71       1.0  0.52550  0.91210  0.63860  1.0000
  H   H94       1.0  0.58180  0.94230  0.61585  1.0000
  C   C72       1.0  0.46380  0.91730  0.57865  1.0000
  H   H95       1.0  0.47900  0.95150  0.51725  1.0000
  N   N8        1.0  0.25360  0.89470  0.61295  1.0000
  H   H96       1.0  0.22020  0.84610  0.64840  1.0000
  O   O22       1.0  0.15020  0.95830  0.68650  1.0000
  O   O23       1.0  0.18840  0.91760  0.86685  1.0000
  O   O24       1.0  0.26510  0.07180  0.80555  1.0000
  P   P9        1.0  0.02107  0.24128  0.77020  1.0000
  C   C73       1.0  0.04140  0.33780  0.69945  1.0000
  H   H97       1.0  0.98890  0.32970  0.66795  1.0000
  H   H98       1.0  0.06180  0.38450  0.75060  1.0000
  C   C74       1.0  0.12270  0.43410  0.54400  1.0000
  H   H99       1.0  0.07520  0.41570  0.99320  1.0000
  C   C75       1.0  0.20230  0.46130  0.97825  1.0000
  H   H100      1.0  0.24980  0.47870  0.52610  1.0000
  H   H101      1.0  0.21220  0.50800  0.93215  1.0000
  H   H102      1.0  0.19540  0.41450  0.93455  1.0000
  C   C76       1.0  0.12840  0.50810  0.61025  1.0000
  C   C77       1.0  0.18000  0.53960  0.70200  1.0000
  H   H103      1.0  0.21280  0.51590  0.72290  1.0000
  C   C78       1.0  0.18310  0.60480  0.76200  1.0000
  H   H104      1.0  0.21670  0.62370  0.82395  1.0000
  C   C79       1.0  0.13650  0.64200  0.73100  1.0000
  H   H105      1.0  0.13800  0.68580  0.77170  1.0000
  C   C80       1.0  0.08790  0.61340  0.63860  1.0000
  H   H106      1.0  0.05770  0.63950  0.61585  1.0000
  C   C81       1.0  0.08270  0.54650  0.57865  1.0000
  H   H107      1.0  0.04850  0.52750  0.51725  1.0000
  N   N9        1.0  0.10530  0.35890  0.61295  1.0000
  H   H108      1.0  0.15390  0.37410  0.64840  1.0000
  O   O25       1.0  0.04170  0.19190  0.68650  1.0000
  O   O26       1.0  0.08240  0.27080  0.86685  1.0000
  O   O27       1.0  0.92820  0.19330  0.80555  1.0000
  P   P10       1.0  0.24128  0.22021  0.52020  1.0000
  C   C82       1.0  0.33780  0.29640  0.94945  1.0000
  H   H109      1.0  0.32970  0.34080  0.91795  1.0000
  H   H110      1.0  0.38450  0.32270  0.50060  1.0000
  C   C83       1.0  0.43410  0.31140  0.79400  1.0000
  H   H111      1.0  0.41570  0.34050  0.74320  1.0000
  C   C84       1.0  0.46130  0.25900  0.72825  1.0000
  H   H112      1.0  0.47870  0.22890  0.77610  1.0000
  H   H113      1.0  0.50800  0.29580  0.68215  1.0000
  H   H114      1.0  0.41450  0.21910  0.68455  1.0000
  C   C85       1.0  0.50810  0.37970  0.86025  1.0000
  C   C86       1.0  0.53960  0.35960  0.95200  1.0000
  H   H115      1.0  0.51590  0.30310  0.97290  1.0000
  C   C87       1.0  0.60480  0.42170  0.51200  1.0000
  H   H116      1.0  0.62370  0.40700  0.57395  1.0000
  C   C88       1.0  0.64200  0.50550  0.98100  1.0000
  H   H117      1.0  0.68580  0.54780  0.52170  1.0000
  C   C89       1.0  0.61340  0.52550  0.88860  1.0000
  H   H118      1.0  0.63950  0.58180  0.86585  1.0000
  C   C90       1.0  0.54650  0.46380  0.82865  1.0000
  H   H119      1.0  0.52750  0.47900  0.76725  1.0000
  N   N10       1.0  0.35890  0.25360  0.86295  1.0000
  H   H120      1.0  0.37410  0.22020  0.89840  1.0000
  O   O28       1.0  0.19190  0.15020  0.93650  1.0000
  O   O29       1.0  0.27080  0.18840  0.61685  1.0000
  O   O30       1.0  0.19330  0.26510  0.55555  1.0000
  P   P11       1.0  0.77979  0.02107  0.52020  1.0000
  C   C91       1.0  0.70360  0.04140  0.94945  1.0000
  H   H121      1.0  0.65920  0.98890  0.91795  1.0000
  H   H122      1.0  0.67730  0.06180  0.50060  1.0000
  C   C92       1.0  0.68860  0.12270  0.79400  1.0000
  H   H123      1.0  0.65950  0.07520  0.74320  1.0000
  C   C93       1.0  0.74100  0.20230  0.72825  1.0000
  H   H124      1.0  0.77110  0.24980  0.77610  1.0000
  H   H125      1.0  0.70420  0.21220  0.68215  1.0000
  H   H126      1.0  0.78090  0.19540  0.68455  1.0000
  C   C94       1.0  0.62030  0.12840  0.86025  1.0000
  C   C95       1.0  0.64040  0.18000  0.95200  1.0000
  H   H127      1.0  0.69690  0.21280  0.97290  1.0000
  C   C96       1.0  0.57830  0.18310  0.51200  1.0000
  H   H128      1.0  0.59300  0.21670  0.57395  1.0000
  C   C97       1.0  0.49450  0.13650  0.98100  1.0000
  H   H129      1.0  0.45220  0.13800  0.52170  1.0000
  C   C98       1.0  0.47450  0.08790  0.88860  1.0000
  H   H130      1.0  0.41820  0.05770  0.86585  1.0000
  C   C99       1.0  0.53620  0.08270  0.82865  1.0000
  H   H131      1.0  0.52100  0.04850  0.76725  1.0000
  N   N11       1.0  0.74640  0.10530  0.86295  1.0000
  H   H132      1.0  0.77980  0.15390  0.89840  1.0000
  O   O31       1.0  0.84980  0.04170  0.93650  1.0000
  O   O32       1.0  0.81160  0.08240  0.61685  1.0000
  O   O33       1.0  0.73490  0.92820  0.55555  1.0000
  P   P12       1.0  0.97893  0.75872  0.52020  1.0000
  C   C100      1.0  0.95860  0.66220  0.94945  1.0000
  H   H133      1.0  0.01110  0.67030  0.91795  1.0000
  H   H134      1.0  0.93820  0.61550  0.50060  1.0000
  C   C101      1.0  0.87730  0.56590  0.79400  1.0000
  H   H135      1.0  0.92480  0.58430  0.74320  1.0000
  C   C102      1.0  0.79770  0.53870  0.72825  1.0000
  H   H136      1.0  0.75020  0.52130  0.77610  1.0000
  H   H137      1.0  0.78780  0.49200  0.68215  1.0000
  H   H138      1.0  0.80460  0.58550  0.68455  1.0000
  C   C103      1.0  0.87160  0.49190  0.86025  1.0000
  C   C104      1.0  0.82000  0.46040  0.95200  1.0000
  H   H139      1.0  0.78720  0.48410  0.97290  1.0000
  C   C105      1.0  0.81690  0.39520  0.51200  1.0000
  H   H140      1.0  0.78330  0.37630  0.57395  1.0000
  C   C106      1.0  0.86350  0.35800  0.98100  1.0000
  H   H141      1.0  0.86200  0.31420  0.52170  1.0000
  C   C107      1.0  0.91210  0.38660  0.88860  1.0000
  H   H142      1.0  0.94230  0.36050  0.86585  1.0000
  C   C108      1.0  0.91730  0.45350  0.82865  1.0000
  H   H143      1.0  0.95150  0.47250  0.76725  1.0000
  N   N12       1.0  0.89470  0.64110  0.86295  1.0000
  H   H144      1.0  0.84610  0.62590  0.89840  1.0000
  O   O34       1.0  0.95830  0.80810  0.93650  1.0000
  O   O35       1.0  0.91760  0.72920  0.61685  1.0000
  O   O36       1.0  0.07180  0.80670  0.55555  1.0000
  Ni  Ni7       1.0  0.76022  0.82914  0.53167  1.0000
  Ni  Ni8       1.0  0.17086  0.93108  0.53167  1.0000
  Ni  Ni9       1.0  0.06892  0.23978  0.53167  1.0000
  Ni  Ni10      1.0  0.23978  0.17086  0.78167  1.0000
  Ni  Ni11      1.0  0.82914  0.06892  0.78167  1.0000
  Ni  Ni12      1.0  0.93108  0.76022  0.78167  1.0000
