data_image0
_chemical_formula_structural       O2CHC2OCO2CHC2OCO2CHC2OCO2CHC2OCO2CHC2OCO2CHC2OCO2CHC2OCO2CHC2OCOCHC2OCO2CHC2OCO3CHC2OCO2CHC2OCO2CHC2OCO2CHC2OCHC2OCO2CHC2OCO2CO2CHC2OCO2CHC2OCNCS2NCNCSCSN2CSNCSCSN2CSNCSNi18O2CHC2OCO2CHC2OCO2CHC2OCO2CHC2OCO2CHC2OCO2CHC2OCO2CHC2OCO2CHC2OCOCHC2OCO2CHC2OCO3CHC2OCO2CHC2OCO2CHC2OCO2CHC2OCHC2OCO2CHC2OCO2CO2CHC2OCO2CHC2OCNCS2NCNCSCSN2CSNCSCSN2CSNCSNi18
_chemical_formula_sum              "O108 C162 H36 N18 S18 Ni36"
_cell_length_a       25.899
_cell_length_b       25.899
_cell_length_c       13.27
_cell_angle_alpha    90
_cell_angle_beta     90
_cell_angle_gamma    120

_space_group_name_H-M_alt    "P 1"
_space_group_IT_number       1

loop_
  _space_group_symop_operation_xyz
  'x, y, z'

loop_
  _atom_site_type_symbol
  _atom_site_label
  _atom_site_symmetry_multiplicity
  _atom_site_fract_x
  _atom_site_fract_y
  _atom_site_fract_z
  _atom_site_occupancy
  O   O1        1.0  0.67406  0.70259  0.31730  1.0000
  O   O2        1.0  0.70013  0.77111  0.19785  1.0000
  C   C1        1.0  0.68506  0.84719  0.31885  1.0000
  H   H1        1.0  0.69773  0.85643  0.25078  1.0000
  C   C2        1.0  0.68256  0.75275  0.28570  1.0000
  C   C3        1.0  0.67243  0.79149  0.35615  1.0000
  O   O3        1.0  0.69396  0.94184  0.32990  1.0000
  C   C4        1.0  0.68018  0.89007  0.37565  1.0000
  O   O4        1.0  0.65927  0.96408  0.01604  1.0000
  O   O5        1.0  0.63320  0.89556  0.13548  1.0000
  C   C5        1.0  0.64827  0.81948  0.01449  1.0000
  H   H2        1.0  0.63560  0.81024  0.08255  1.0000
  C   C6        1.0  0.65077  0.91392  0.04763  1.0000
  C   C7        1.0  0.66090  0.87518  0.47719  1.0000
  O   O6        1.0  0.63937  0.72483  0.00344  1.0000
  C   C8        1.0  0.65315  0.77660  0.45769  1.0000
  O   O7        1.0  0.32594  0.29741  0.18270  1.0000
  O   O8        1.0  0.29987  0.22889  0.30215  1.0000
  C   C9        1.0  0.31494  0.15281  0.18115  1.0000
  H   H3        1.0  0.30227  0.14357  0.24921  1.0000
  C   C10       1.0  0.31744  0.24725  0.21430  1.0000
  C   C11       1.0  0.32757  0.20851  0.14385  1.0000
  O   O9        1.0  0.30604  0.05816  0.17010  1.0000
  C   C12       1.0  0.31982  0.10993  0.12435  1.0000
  O   O10       1.0  0.34073  0.03592  0.48397  1.0000
  O   O11       1.0  0.36680  0.10444  0.36451  1.0000
  C   C13       1.0  0.35173  0.18052  0.48551  1.0000
  H   H4        1.0  0.36440  0.18976  0.41745  1.0000
  C   C14       1.0  0.34923  0.08608  0.45237  1.0000
  C   C15       1.0  0.33910  0.12482  0.02281  1.0000
  O   O12       1.0  0.36063  0.27517  0.49656  1.0000
  C   C16       1.0  0.34685  0.22340  0.04231  1.0000
  O   O13       1.0  0.99261  0.63074  0.34937  1.0000
  O   O14       1.0  0.96654  0.56222  0.46881  1.0000
  C   C17       1.0  0.98161  0.48614  0.34781  1.0000
  H   H5        1.0  0.96894  0.47690  0.41589  1.0000
  C   C18       1.0  0.98411  0.58058  0.38096  1.0000
  C   C19       1.0  0.99424  0.54184  0.31051  1.0000
  O   O15       1.0  0.97271  0.39149  0.33676  1.0000
  C   C20       1.0  0.98649  0.44326  0.29102  1.0000
  O   O16       1.0  0.00739  0.36926  0.15064  1.0000
  O   O17       1.0  0.03346  0.43778  0.03119  1.0000
  C   C21       1.0  0.01839  0.51386  0.15219  1.0000
  H   H6        1.0  0.03106  0.52310  0.08412  1.0000
  C   C22       1.0  0.01589  0.41942  0.11904  1.0000
  C   C23       1.0  0.00576  0.45816  0.18949  1.0000
  O   O18       1.0  0.02729  0.60851  0.16324  1.0000
  C   C24       1.0  0.01351  0.55674  0.20899  1.0000
  O   O19       1.0  0.29741  0.97147  0.31730  1.0000
  O   O20       1.0  0.22889  0.92902  0.19785  1.0000
  C   C25       1.0  0.15281  0.83787  0.31885  1.0000
  H   H7        1.0  0.14357  0.84130  0.25078  1.0000
  C   C26       1.0  0.24725  0.92981  0.28570  1.0000
  C   C27       1.0  0.20851  0.88094  0.35615  1.0000
  O   O21       1.0  0.05816  0.75212  0.32990  1.0000
  C   C28       1.0  0.10993  0.79011  0.37565  1.0000
  O   O22       1.0  0.03592  0.69520  0.01604  1.0000
  O   O23       1.0  0.10444  0.73765  0.13548  1.0000
  C   C29       1.0  0.18052  0.82880  0.01449  1.0000
  H   H8        1.0  0.18976  0.82537  0.08255  1.0000
  C   C30       1.0  0.08608  0.73686  0.04763  1.0000
  C   C31       1.0  0.12482  0.78573  0.47719  1.0000
  O   O24       1.0  0.27517  0.91455  0.00344  1.0000
  C   C32       1.0  0.22340  0.87656  0.45769  1.0000
  O   O25       1.0  0.77111  0.07098  0.30215  1.0000
  C   C33       1.0  0.84719  0.16213  0.18115  1.0000
  H   H9        1.0  0.85643  0.15870  0.24921  1.0000
  C   C34       1.0  0.75275  0.07019  0.21430  1.0000
  C   C35       1.0  0.79149  0.11906  0.14385  1.0000
  O   O26       1.0  0.94184  0.24788  0.17010  1.0000
  C   C36       1.0  0.89007  0.20989  0.12435  1.0000
  O   O27       1.0  0.96408  0.30480  0.48397  1.0000
  O   O28       1.0  0.89556  0.26235  0.36451  1.0000
  C   C37       1.0  0.81948  0.17120  0.48551  1.0000
  H   H10       1.0  0.81024  0.17463  0.41745  1.0000
  C   C38       1.0  0.91392  0.26314  0.45237  1.0000
  C   C39       1.0  0.87518  0.21427  0.02281  1.0000
  O   O29       1.0  0.72483  0.08545  0.49656  1.0000
  C   C40       1.0  0.77660  0.12344  0.04231  1.0000
  O   O30       1.0  0.70259  0.02853  0.18270  1.0000
  O   O31       1.0  0.36926  0.36186  0.34937  1.0000
  O   O32       1.0  0.43778  0.40431  0.46881  1.0000
  C   C41       1.0  0.51386  0.49546  0.34781  1.0000
  H   H11       1.0  0.52310  0.49203  0.41589  1.0000
  C   C42       1.0  0.41942  0.40352  0.38096  1.0000
  C   C43       1.0  0.45816  0.45239  0.31051  1.0000
  O   O33       1.0  0.60851  0.58121  0.33676  1.0000
  C   C44       1.0  0.55674  0.54322  0.29102  1.0000
  O   O34       1.0  0.63074  0.63814  0.15064  1.0000
  O   O35       1.0  0.56222  0.59569  0.03119  1.0000
  C   C45       1.0  0.48614  0.50454  0.15219  1.0000
  H   H12       1.0  0.47690  0.50797  0.08412  1.0000
  C   C46       1.0  0.58058  0.59648  0.11904  1.0000
  C   C47       1.0  0.54184  0.54761  0.18949  1.0000
  O   O36       1.0  0.39149  0.41879  0.16324  1.0000
  C   C48       1.0  0.44326  0.45678  0.20899  1.0000
  O   O37       1.0  0.02853  0.32594  0.31730  1.0000
  O   O38       1.0  0.07098  0.29987  0.19785  1.0000
  C   C49       1.0  0.16213  0.31494  0.31885  1.0000
  H   H13       1.0  0.15870  0.30227  0.25078  1.0000
  C   C50       1.0  0.07019  0.31744  0.28570  1.0000
  C   C51       1.0  0.11906  0.32757  0.35615  1.0000
  O   O39       1.0  0.24788  0.30604  0.32990  1.0000
  C   C52       1.0  0.20989  0.31982  0.37565  1.0000
  O   O40       1.0  0.30480  0.34073  0.01604  1.0000
  O   O41       1.0  0.26235  0.36680  0.13548  1.0000
  C   C53       1.0  0.17120  0.35173  0.01449  1.0000
  H   H14       1.0  0.17463  0.36440  0.08255  1.0000
  C   C54       1.0  0.26314  0.34923  0.04763  1.0000
  C   C55       1.0  0.21427  0.33910  0.47719  1.0000
  O   O42       1.0  0.08545  0.36063  0.00344  1.0000
  C   C56       1.0  0.12344  0.34685  0.45769  1.0000
  H   H15       1.0  0.84130  0.69773  0.24921  1.0000
  C   C57       1.0  0.92981  0.68256  0.21430  1.0000
  C   C58       1.0  0.88094  0.67243  0.14385  1.0000
  O   O43       1.0  0.75212  0.69396  0.17010  1.0000
  C   C59       1.0  0.79011  0.68018  0.12435  1.0000
  O   O44       1.0  0.69520  0.65927  0.48397  1.0000
  O   O45       1.0  0.73765  0.63320  0.36451  1.0000
  C   C60       1.0  0.82880  0.64827  0.48551  1.0000
  H   H16       1.0  0.82537  0.63560  0.41745  1.0000
  C   C61       1.0  0.73686  0.65077  0.45237  1.0000
  C   C62       1.0  0.78573  0.66090  0.02281  1.0000
  O   O46       1.0  0.91455  0.63937  0.49656  1.0000
  C   C63       1.0  0.87656  0.65315  0.04231  1.0000
  O   O47       1.0  0.97147  0.67406  0.18270  1.0000
  O   O48       1.0  0.92902  0.70013  0.30215  1.0000
  C   C64       1.0  0.83787  0.68506  0.18115  1.0000
  O   O49       1.0  0.63814  0.00739  0.34937  1.0000
  O   O50       1.0  0.59569  0.03346  0.46881  1.0000
  C   C65       1.0  0.50454  0.01839  0.34781  1.0000
  H   H17       1.0  0.50797  0.03106  0.41589  1.0000
  C   C66       1.0  0.59648  0.01589  0.38096  1.0000
  C   C67       1.0  0.54761  0.00576  0.31051  1.0000
  O   O51       1.0  0.41879  0.02729  0.33676  1.0000
  C   C68       1.0  0.45678  0.01351  0.29102  1.0000
  O   O52       1.0  0.36186  0.99261  0.15064  1.0000
  O   O53       1.0  0.40431  0.96654  0.03119  1.0000
  C   C69       1.0  0.49546  0.98161  0.15219  1.0000
  H   H18       1.0  0.49203  0.96894  0.08412  1.0000
  C   C70       1.0  0.40352  0.98411  0.11904  1.0000
  C   C71       1.0  0.45239  0.99424  0.18949  1.0000
  O   O54       1.0  0.58121  0.97271  0.16324  1.0000
  C   C72       1.0  0.54322  0.98649  0.20899  1.0000
  N   N1        1.0  0.87587  0.31867  0.19084  1.0000
  C   C73       1.0  0.83003  0.31793  0.17956  1.0000
  S   S1        1.0  0.76647  0.31820  0.16209  1.0000
  S   S2        1.0  0.10317  0.98778  0.48974  1.0000
  N   N2        1.0  0.21020  0.98457  0.02172  1.0000
  C   C74       1.0  0.16483  0.98450  0.00808  1.0000
  N   N3        1.0  0.68253  0.55785  0.18909  1.0000
  C   C75       1.0  0.68307  0.51267  0.17722  1.0000
  S   S3        1.0  0.68230  0.44851  0.15988  1.0000
  C   C76       1.0  0.01435  0.17875  0.01802  1.0000
  S   S4        1.0  0.01210  0.11362  0.01001  1.0000
  N   N4        1.0  0.01600  0.22534  0.02325  1.0000
  N   N5        1.0  0.44319  0.12480  0.18856  1.0000
  C   C77       1.0  0.48773  0.17115  0.17662  1.0000
  S   S5        1.0  0.55109  0.23522  0.15907  1.0000
  N   N6        1.0  0.12340  0.68120  0.31215  1.0000
  C   C78       1.0  0.16891  0.68140  0.32545  1.0000
  S   S6        1.0  0.23193  0.68078  0.34460  1.0000
  C   C79       1.0  0.30921  0.48324  0.32282  1.0000
  S   S7        1.0  0.30257  0.54329  0.33776  1.0000
  N   N7        1.0  0.31725  0.44210  0.31305  1.0000
  N   N8        1.0  0.55967  0.87753  0.31261  1.0000
  C   C80       1.0  0.51088  0.83594  0.32233  1.0000
  S   S8        1.0  0.44359  0.77678  0.33710  1.0000
  N   N9        1.0  0.77435  0.79180  0.02376  1.0000
  C   C81       1.0  0.82141  0.83652  0.02541  1.0000
  S   S9        1.0  0.88833  0.89794  0.02487  1.0000
  Ni  Ni1       1.0  0.68266  0.63203  0.25582  1.0000
  Ni  Ni2       1.0  0.94937  0.31734  0.25582  1.0000
  Ni  Ni3       1.0  0.29870  0.28270  0.41085  1.0000
  Ni  Ni4       1.0  0.34933  0.96536  0.42248  1.0000
  Ni  Ni5       1.0  0.61604  0.65067  0.42248  1.0000
  Ni  Ni6       1.0  0.96536  0.61604  0.07752  1.0000
  Ni  Ni7       1.0  0.01599  0.29870  0.08915  1.0000
  Ni  Ni8       1.0  0.28270  0.98401  0.08915  1.0000
  Ni  Ni9       1.0  0.05063  0.68266  0.24419  1.0000
  Ni  Ni10      1.0  0.31734  0.36797  0.24419  1.0000
  Ni  Ni11      1.0  0.36797  0.05063  0.25582  1.0000
  Ni  Ni12      1.0  0.71730  0.01599  0.41085  1.0000
  Ni  Ni13      1.0  0.98401  0.70130  0.41085  1.0000
  Ni  Ni14      1.0  0.03464  0.38396  0.42248  1.0000
  Ni  Ni15      1.0  0.38396  0.34933  0.07752  1.0000
  Ni  Ni16      1.0  0.65067  0.03464  0.07752  1.0000
  Ni  Ni17      1.0  0.70130  0.71730  0.08915  1.0000
  Ni  Ni18      1.0  0.63203  0.94937  0.24419  1.0000
  O   O55       1.0  0.67406  0.70259  0.81730  1.0000
  O   O56       1.0  0.70013  0.77111  0.69785  1.0000
  C   C82       1.0  0.68506  0.84719  0.81885  1.0000
  H   H19       1.0  0.69773  0.85643  0.75079  1.0000
  C   C83       1.0  0.68256  0.75275  0.78570  1.0000
  C   C84       1.0  0.67243  0.79149  0.85615  1.0000
  O   O57       1.0  0.69396  0.94184  0.82990  1.0000
  C   C85       1.0  0.68018  0.89007  0.87565  1.0000
  O   O58       1.0  0.65927  0.96408  0.51604  1.0000
  O   O59       1.0  0.63320  0.89556  0.63548  1.0000
  C   C86       1.0  0.64827  0.81948  0.51448  1.0000
  H   H20       1.0  0.63560  0.81024  0.58255  1.0000
  C   C87       1.0  0.65077  0.91392  0.54763  1.0000
  C   C88       1.0  0.66090  0.87518  0.97719  1.0000
  O   O60       1.0  0.63937  0.72483  0.50344  1.0000
  C   C89       1.0  0.65315  0.77660  0.95769  1.0000
  O   O61       1.0  0.32594  0.29741  0.68270  1.0000
  O   O62       1.0  0.29987  0.22889  0.80215  1.0000
  C   C90       1.0  0.31494  0.15281  0.68115  1.0000
  H   H21       1.0  0.30227  0.14357  0.74921  1.0000
  C   C91       1.0  0.31744  0.24725  0.71430  1.0000
  C   C92       1.0  0.32757  0.20851  0.64385  1.0000
  O   O63       1.0  0.30604  0.05816  0.67010  1.0000
  C   C93       1.0  0.31982  0.10993  0.62435  1.0000
  O   O64       1.0  0.34073  0.03592  0.98397  1.0000
  O   O65       1.0  0.36680  0.10444  0.86451  1.0000
  C   C94       1.0  0.35173  0.18052  0.98551  1.0000
  H   H22       1.0  0.36440  0.18976  0.91745  1.0000
  C   C95       1.0  0.34923  0.08608  0.95237  1.0000
  C   C96       1.0  0.33910  0.12482  0.52282  1.0000
  O   O66       1.0  0.36063  0.27517  0.99656  1.0000
  C   C97       1.0  0.34685  0.22340  0.54232  1.0000
  O   O67       1.0  0.99261  0.63074  0.84937  1.0000
  O   O68       1.0  0.96654  0.56222  0.96881  1.0000
  C   C98       1.0  0.98161  0.48614  0.84781  1.0000
  H   H23       1.0  0.96894  0.47690  0.91589  1.0000
  C   C99       1.0  0.98411  0.58058  0.88096  1.0000
  C   C100      1.0  0.99424  0.54184  0.81051  1.0000
  O   O69       1.0  0.97271  0.39149  0.83676  1.0000
  C   C101      1.0  0.98649  0.44326  0.79102  1.0000
  O   O70       1.0  0.00739  0.36926  0.65064  1.0000
  O   O71       1.0  0.03346  0.43778  0.53119  1.0000
  C   C102      1.0  0.01839  0.51386  0.65219  1.0000
  H   H24       1.0  0.03106  0.52310  0.58412  1.0000
  C   C103      1.0  0.01589  0.41942  0.61904  1.0000
  C   C104      1.0  0.00576  0.45816  0.68949  1.0000
  O   O72       1.0  0.02729  0.60851  0.66324  1.0000
  C   C105      1.0  0.01351  0.55674  0.70899  1.0000
  O   O73       1.0  0.29741  0.97147  0.81730  1.0000
  O   O74       1.0  0.22889  0.92902  0.69785  1.0000
  C   C106      1.0  0.15281  0.83787  0.81885  1.0000
  H   H25       1.0  0.14357  0.84130  0.75079  1.0000
  C   C107      1.0  0.24725  0.92981  0.78570  1.0000
  C   C108      1.0  0.20851  0.88094  0.85615  1.0000
  O   O75       1.0  0.05816  0.75212  0.82990  1.0000
  C   C109      1.0  0.10993  0.79011  0.87565  1.0000
  O   O76       1.0  0.03592  0.69520  0.51604  1.0000
  O   O77       1.0  0.10444  0.73765  0.63548  1.0000
  C   C110      1.0  0.18052  0.82880  0.51448  1.0000
  H   H26       1.0  0.18976  0.82537  0.58255  1.0000
  C   C111      1.0  0.08608  0.73686  0.54763  1.0000
  C   C112      1.0  0.12482  0.78573  0.97719  1.0000
  O   O78       1.0  0.27517  0.91455  0.50344  1.0000
  C   C113      1.0  0.22340  0.87656  0.95769  1.0000
  O   O79       1.0  0.77111  0.07098  0.80215  1.0000
  C   C114      1.0  0.84719  0.16213  0.68115  1.0000
  H   H27       1.0  0.85643  0.15870  0.74921  1.0000
  C   C115      1.0  0.75275  0.07019  0.71430  1.0000
  C   C116      1.0  0.79149  0.11906  0.64385  1.0000
  O   O80       1.0  0.94184  0.24788  0.67010  1.0000
  C   C117      1.0  0.89007  0.20989  0.62435  1.0000
  O   O81       1.0  0.96408  0.30480  0.98397  1.0000
  O   O82       1.0  0.89556  0.26235  0.86451  1.0000
  C   C118      1.0  0.81948  0.17120  0.98551  1.0000
  H   H28       1.0  0.81024  0.17463  0.91745  1.0000
  C   C119      1.0  0.91392  0.26314  0.95237  1.0000
  C   C120      1.0  0.87518  0.21427  0.52282  1.0000
  O   O83       1.0  0.72483  0.08545  0.99656  1.0000
  C   C121      1.0  0.77660  0.12344  0.54232  1.0000
  O   O84       1.0  0.70259  0.02853  0.68270  1.0000
  O   O85       1.0  0.36926  0.36186  0.84937  1.0000
  O   O86       1.0  0.43778  0.40431  0.96881  1.0000
  C   C122      1.0  0.51386  0.49546  0.84781  1.0000
  H   H29       1.0  0.52310  0.49203  0.91589  1.0000
  C   C123      1.0  0.41942  0.40352  0.88096  1.0000
  C   C124      1.0  0.45816  0.45239  0.81051  1.0000
  O   O87       1.0  0.60851  0.58121  0.83676  1.0000
  C   C125      1.0  0.55674  0.54322  0.79102  1.0000
  O   O88       1.0  0.63074  0.63814  0.65064  1.0000
  O   O89       1.0  0.56222  0.59569  0.53119  1.0000
  C   C126      1.0  0.48614  0.50454  0.65219  1.0000
  H   H30       1.0  0.47690  0.50797  0.58412  1.0000
  C   C127      1.0  0.58058  0.59648  0.61904  1.0000
  C   C128      1.0  0.54184  0.54761  0.68949  1.0000
  O   O90       1.0  0.39149  0.41879  0.66324  1.0000
  C   C129      1.0  0.44326  0.45678  0.70899  1.0000
  O   O91       1.0  0.02853  0.32594  0.81730  1.0000
  O   O92       1.0  0.07098  0.29987  0.69785  1.0000
  C   C130      1.0  0.16213  0.31494  0.81885  1.0000
  H   H31       1.0  0.15870  0.30227  0.75079  1.0000
  C   C131      1.0  0.07019  0.31744  0.78570  1.0000
  C   C132      1.0  0.11906  0.32757  0.85615  1.0000
  O   O93       1.0  0.24788  0.30604  0.82990  1.0000
  C   C133      1.0  0.20989  0.31982  0.87565  1.0000
  O   O94       1.0  0.30480  0.34073  0.51604  1.0000
  O   O95       1.0  0.26235  0.36680  0.63548  1.0000
  C   C134      1.0  0.17120  0.35173  0.51448  1.0000
  H   H32       1.0  0.17463  0.36440  0.58255  1.0000
  C   C135      1.0  0.26314  0.34923  0.54763  1.0000
  C   C136      1.0  0.21427  0.33910  0.97719  1.0000
  O   O96       1.0  0.08545  0.36063  0.50344  1.0000
  C   C137      1.0  0.12344  0.34685  0.95769  1.0000
  H   H33       1.0  0.84130  0.69773  0.74921  1.0000
  C   C138      1.0  0.92981  0.68256  0.71430  1.0000
  C   C139      1.0  0.88094  0.67243  0.64385  1.0000
  O   O97       1.0  0.75212  0.69396  0.67010  1.0000
  C   C140      1.0  0.79011  0.68018  0.62435  1.0000
  O   O98       1.0  0.69520  0.65927  0.98397  1.0000
  O   O99       1.0  0.73765  0.63320  0.86451  1.0000
  C   C141      1.0  0.82880  0.64827  0.98551  1.0000
  H   H34       1.0  0.82537  0.63560  0.91745  1.0000
  C   C142      1.0  0.73686  0.65077  0.95237  1.0000
  C   C143      1.0  0.78573  0.66090  0.52282  1.0000
  O   O100      1.0  0.91455  0.63937  0.99656  1.0000
  C   C144      1.0  0.87656  0.65315  0.54232  1.0000
  O   O101      1.0  0.97147  0.67406  0.68270  1.0000
  O   O102      1.0  0.92902  0.70013  0.80215  1.0000
  C   C145      1.0  0.83787  0.68506  0.68115  1.0000
  O   O103      1.0  0.63814  0.00739  0.84937  1.0000
  O   O104      1.0  0.59569  0.03346  0.96881  1.0000
  C   C146      1.0  0.50454  0.01839  0.84781  1.0000
  H   H35       1.0  0.50797  0.03106  0.91589  1.0000
  C   C147      1.0  0.59648  0.01589  0.88096  1.0000
  C   C148      1.0  0.54761  0.00576  0.81051  1.0000
  O   O105      1.0  0.41879  0.02729  0.83676  1.0000
  C   C149      1.0  0.45678  0.01351  0.79102  1.0000
  O   O106      1.0  0.36186  0.99261  0.65064  1.0000
  O   O107      1.0  0.40431  0.96654  0.53119  1.0000
  C   C150      1.0  0.49546  0.98161  0.65219  1.0000
  H   H36       1.0  0.49203  0.96894  0.58412  1.0000
  C   C151      1.0  0.40352  0.98411  0.61904  1.0000
  C   C152      1.0  0.45239  0.99424  0.68949  1.0000
  O   O108      1.0  0.58121  0.97271  0.66324  1.0000
  C   C153      1.0  0.54322  0.98649  0.70899  1.0000
  N   N10       1.0  0.87587  0.31867  0.69085  1.0000
  C   C154      1.0  0.83003  0.31793  0.67956  1.0000
  S   S10       1.0  0.76647  0.31820  0.66210  1.0000
  S   S11       1.0  0.10317  0.98778  0.98974  1.0000
  N   N11       1.0  0.21020  0.98457  0.52172  1.0000
  C   C155      1.0  0.16483  0.98450  0.50808  1.0000
  N   N12       1.0  0.68253  0.55785  0.68909  1.0000
  C   C156      1.0  0.68307  0.51267  0.67722  1.0000
  S   S12       1.0  0.68230  0.44851  0.65989  1.0000
  C   C157      1.0  0.01435  0.17875  0.51802  1.0000
  S   S13       1.0  0.01210  0.11362  0.51001  1.0000
  N   N13       1.0  0.01600  0.22534  0.52325  1.0000
  N   N14       1.0  0.44319  0.12480  0.68856  1.0000
  C   C158      1.0  0.48773  0.17115  0.67662  1.0000
  S   S14       1.0  0.55109  0.23522  0.65907  1.0000
  N   N15       1.0  0.12340  0.68120  0.81215  1.0000
  C   C159      1.0  0.16891  0.68140  0.82546  1.0000
  S   S15       1.0  0.23193  0.68078  0.84461  1.0000
  C   C160      1.0  0.30921  0.48324  0.82282  1.0000
  S   S16       1.0  0.30257  0.54329  0.83776  1.0000
  N   N16       1.0  0.31725  0.44210  0.81305  1.0000
  N   N17       1.0  0.55967  0.87753  0.81262  1.0000
  C   C161      1.0  0.51088  0.83594  0.82233  1.0000
  S   S17       1.0  0.44359  0.77678  0.83710  1.0000
  N   N18       1.0  0.77435  0.79180  0.52376  1.0000
  C   C162      1.0  0.82141  0.83652  0.52541  1.0000
  S   S18       1.0  0.88833  0.89794  0.52487  1.0000
  Ni  Ni19      1.0  0.68266  0.63203  0.75582  1.0000
  Ni  Ni20      1.0  0.94937  0.31734  0.75582  1.0000
  Ni  Ni21      1.0  0.29870  0.28270  0.91085  1.0000
  Ni  Ni22      1.0  0.34933  0.96536  0.92248  1.0000
  Ni  Ni23      1.0  0.61604  0.65067  0.92248  1.0000
  Ni  Ni24      1.0  0.96536  0.61604  0.57752  1.0000
  Ni  Ni25      1.0  0.01599  0.29870  0.58915  1.0000
  Ni  Ni26      1.0  0.28270  0.98401  0.58915  1.0000
  Ni  Ni27      1.0  0.05063  0.68266  0.74418  1.0000
  Ni  Ni28      1.0  0.31734  0.36797  0.74418  1.0000
  Ni  Ni29      1.0  0.36797  0.05063  0.75582  1.0000
  Ni  Ni30      1.0  0.71730  0.01599  0.91085  1.0000
  Ni  Ni31      1.0  0.98401  0.70130  0.91085  1.0000
  Ni  Ni32      1.0  0.03464  0.38396  0.92248  1.0000
  Ni  Ni33      1.0  0.38396  0.34933  0.57752  1.0000
  Ni  Ni34      1.0  0.65067  0.03464  0.57752  1.0000
  Ni  Ni35      1.0  0.70130  0.71730  0.58915  1.0000
  Ni  Ni36      1.0  0.63203  0.94937  0.74418  1.0000
