data_image0
_chemical_formula_structural       FCH2FCH2FCH2FCH2FCH2FCH2FCH2FCH2Nb2Ni2FOFO5N4
_chemical_formula_sum              "F10 C8 H16 Nb2 Ni2 O6 N4"
_cell_length_a       11.1827
_cell_length_b       7.0429
_cell_length_c       7.6093
_cell_angle_alpha    90
_cell_angle_beta     123.361
_cell_angle_gamma    90

_space_group_name_H-M_alt    "P 1"
_space_group_IT_number       1

loop_
  _space_group_symop_operation_xyz
  'x, y, z'

loop_
  _atom_site_type_symbol
  _atom_site_label
  _atom_site_symmetry_multiplicity
  _atom_site_fract_x
  _atom_site_fract_y
  _atom_site_fract_z
  _atom_site_occupancy
  F   F1        1.0  0.12830  0.79670  0.06100  1.0000
  C   C1        1.0  0.93700  0.40700  0.56400  1.0000
  H   H1        1.0  0.26240  0.08670  0.82510  1.0000
  H   H2        1.0  0.87720  0.33190  0.60830  1.0000
  F   F2        1.0  0.62830  0.29670  0.06100  1.0000
  C   C2        1.0  0.43700  0.90700  0.56400  1.0000
  H   H3        1.0  0.76240  0.58670  0.82510  1.0000
  H   H4        1.0  0.37720  0.83190  0.60830  1.0000
  F   F3        1.0  0.87170  0.79670  0.93900  1.0000
  C   C3        1.0  0.06300  0.40700  0.43600  1.0000
  H   H5        1.0  0.73760  0.08670  0.17490  1.0000
  H   H6        1.0  0.12280  0.33190  0.39170  1.0000
  F   F4        1.0  0.37170  0.29670  0.93900  1.0000
  C   C4        1.0  0.56300  0.90700  0.43600  1.0000
  H   H7        1.0  0.23760  0.58670  0.17490  1.0000
  H   H8        1.0  0.62280  0.83190  0.39170  1.0000
  F   F5        1.0  0.87170  0.20330  0.93900  1.0000
  C   C5        1.0  0.06300  0.59300  0.43600  1.0000
  H   H9        1.0  0.73760  0.91330  0.17490  1.0000
  H   H10       1.0  0.12280  0.66810  0.39170  1.0000
  F   F6        1.0  0.37170  0.70330  0.93900  1.0000
  C   C6        1.0  0.56300  0.09300  0.43600  1.0000
  H   H11       1.0  0.23760  0.41330  0.17490  1.0000
  H   H12       1.0  0.62280  0.16810  0.39170  1.0000
  F   F7        1.0  0.12830  0.20330  0.06100  1.0000
  C   C7        1.0  0.93700  0.59300  0.56400  1.0000
  H   H13       1.0  0.26240  0.91330  0.82510  1.0000
  H   H14       1.0  0.87720  0.66810  0.60830  1.0000
  F   F8        1.0  0.62830  0.70330  0.06100  1.0000
  C   C8        1.0  0.43700  0.09300  0.56400  1.0000
  H   H15       1.0  0.76240  0.41330  0.82510  1.0000
  H   H16       1.0  0.37720  0.16810  0.60830  1.0000
  Nb  Nb1       1.0  0.00000  0.00000  0.00000  1.0000
  Nb  Nb2       1.0  0.50000  0.50000  0.00000  1.0000
  Ni  Ni1       1.0  0.00000  0.00000  0.50000  1.0000
  Ni  Ni2       1.0  0.50000  0.50000  0.50000  1.0000
  F   F9        1.0  0.05930  0.00000  0.30100  1.0000
  O   O1        1.0  0.20200  0.00000  0.73200  1.0000
  F   F10       1.0  0.55930  0.50000  0.30100  1.0000
  O   O2        1.0  0.70200  0.50000  0.73200  1.0000
  O   O3        1.0  0.94070  0.00000  0.69900  1.0000
  O   O4        1.0  0.79800  0.00000  0.26800  1.0000
  O   O5        1.0  0.44070  0.50000  0.69900  1.0000
  O   O6        1.0  0.29800  0.50000  0.26800  1.0000
  N   N1        1.0  0.00000  0.32000  0.50000  1.0000
  N   N2        1.0  0.50000  0.82000  0.50000  1.0000
  N   N3        1.0  0.00000  0.68000  0.50000  1.0000
  N   N4        1.0  0.50000  0.18000  0.50000  1.0000
