data_image0
_chemical_formula_structural       PO3C3HC2HCH2O2POPOPO3C3H2C3H2O3CO2PO3C3H2C2H2PC2H2C3H2O3P2O3CLa4
_chemical_formula_sum              "P8 O24 C24 H16 La4"
_cell_length_a       5.6331
_cell_length_b       20.1972
_cell_length_c       8.4021
_cell_angle_alpha    90
_cell_angle_beta     108.657
_cell_angle_gamma    90

_space_group_name_H-M_alt    "P 1"
_space_group_IT_number       1

loop_
  _space_group_symop_operation_xyz
  'x, y, z'

loop_
  _atom_site_type_symbol
  _atom_site_label
  _atom_site_symmetry_multiplicity
  _atom_site_fract_x
  _atom_site_fract_y
  _atom_site_fract_z
  _atom_site_occupancy
  P   P1        1.0  0.61302  0.15616  0.96379  1.0000
  O   O1        1.0  0.74157  0.16505  0.18145  1.0000
  O   O2        1.0  0.89828  0.15621  0.91750  1.0000
  O   O3        1.0  0.45240  0.23237  0.94677  1.0000
  C   C1        1.0  0.67897  0.02022  0.92964  1.0000
  C   C2        1.0  0.35018  0.04735  0.04470  1.0000
  C   C3        1.0  0.52685  0.06815  0.97154  1.0000
  H   H1        1.0  0.81865  0.03486  0.87341  1.0000
  C   C4        1.0  0.32103  0.97978  0.07036  1.0000
  C   C5        1.0  0.64982  0.95265  0.95530  1.0000
  H   H2        1.0  0.24045  0.08292  0.08631  1.0000
  C   C6        1.0  0.47315  0.93185  0.02846  1.0000
  H   H3        1.0  0.75955  0.91708  0.91369  1.0000
  H   H4        1.0  0.18135  0.96514  0.12659  1.0000
  O   O4        1.0  0.25843  0.83495  0.81855  1.0000
  O   O5        1.0  0.54760  0.76763  0.05323  1.0000
  P   P2        1.0  0.38698  0.84384  0.03621  1.0000
  O   O6        1.0  0.10172  0.84379  0.08250  1.0000
  P   P3        1.0  0.88698  0.34384  0.03621  1.0000
  O   O7        1.0  0.75843  0.33495  0.81855  1.0000
  P   P4        1.0  0.11302  0.65616  0.96379  1.0000
  O   O8        1.0  0.24157  0.66505  0.18145  1.0000
  O   O9        1.0  0.39828  0.65621  0.91750  1.0000
  O   O10       1.0  0.95240  0.73237  0.94677  1.0000
  C   C7        1.0  0.17897  0.52022  0.92964  1.0000
  C   C8        1.0  0.85018  0.54735  0.04470  1.0000
  C   C9        1.0  0.02685  0.56815  0.97154  1.0000
  H   H5        1.0  0.31865  0.53486  0.87341  1.0000
  H   H6        1.0  0.74045  0.58292  0.08631  1.0000
  C   C10       1.0  0.14982  0.45265  0.95530  1.0000
  C   C11       1.0  0.82103  0.47978  0.07036  1.0000
  C   C12       1.0  0.97315  0.43185  0.02846  1.0000
  H   H7        1.0  0.25955  0.41708  0.91369  1.0000
  H   H8        1.0  0.68135  0.46514  0.12659  1.0000
  O   O11       1.0  0.60172  0.34379  0.08250  1.0000
  O   O12       1.0  0.04760  0.26763  0.05323  1.0000
  O   O13       1.0  0.89828  0.84379  0.41750  1.0000
  C   C13       1.0  0.67897  0.97978  0.42964  1.0000
  O   O14       1.0  0.74157  0.83495  0.68145  1.0000
  O   O15       1.0  0.45240  0.76763  0.44677  1.0000
  P   P5        1.0  0.38698  0.15616  0.53621  1.0000
  O   O16       1.0  0.25843  0.16505  0.31855  1.0000
  O   O17       1.0  0.10172  0.15621  0.58250  1.0000
  O   O18       1.0  0.54760  0.23237  0.55323  1.0000
  C   C14       1.0  0.32103  0.02022  0.57036  1.0000
  C   C15       1.0  0.64982  0.04735  0.45530  1.0000
  C   C16       1.0  0.47315  0.06815  0.52846  1.0000
  H   H9        1.0  0.18135  0.03486  0.62659  1.0000
  H   H10       1.0  0.75955  0.08292  0.41369  1.0000
  C   C17       1.0  0.35018  0.95265  0.54470  1.0000
  C   C18       1.0  0.52685  0.93185  0.47154  1.0000
  H   H11       1.0  0.81865  0.96514  0.37341  1.0000
  H   H12       1.0  0.24045  0.91708  0.58631  1.0000
  P   P6        1.0  0.61302  0.84384  0.46379  1.0000
  C   C19       1.0  0.14982  0.54735  0.45530  1.0000
  C   C20       1.0  0.97315  0.56815  0.52846  1.0000
  H   H13       1.0  0.68135  0.53486  0.62659  1.0000
  H   H14       1.0  0.25955  0.58292  0.41369  1.0000
  C   C21       1.0  0.85018  0.45265  0.54470  1.0000
  C   C22       1.0  0.17897  0.47978  0.42964  1.0000
  C   C23       1.0  0.02685  0.43185  0.47154  1.0000
  H   H15       1.0  0.74045  0.41708  0.58631  1.0000
  H   H16       1.0  0.31865  0.46514  0.37341  1.0000
  O   O19       1.0  0.95240  0.26763  0.44677  1.0000
  O   O20       1.0  0.39828  0.34379  0.41750  1.0000
  O   O21       1.0  0.24157  0.33495  0.68145  1.0000
  P   P7        1.0  0.11302  0.34384  0.46379  1.0000
  P   P8        1.0  0.88698  0.65616  0.53621  1.0000
  O   O22       1.0  0.75843  0.66505  0.31855  1.0000
  O   O23       1.0  0.60172  0.65621  0.58250  1.0000
  O   O24       1.0  0.04760  0.73237  0.55323  1.0000
  C   C24       1.0  0.82103  0.52022  0.57036  1.0000
  La  La1       1.0  0.50000  0.25584  0.25000  1.0000
  La  La2       1.0  0.00000  0.75584  0.25000  1.0000
  La  La3       1.0  0.50000  0.74416  0.75000  1.0000
  La  La4       1.0  0.00000  0.24416  0.75000  1.0000
