data_image0
_chemical_formula_structural       PO3C3HC2HCH2O2POPOPO3C3H2C3H2O3CO2PO3C3H2C2H2PC2H2C3H2O3P2O3CCe4
_chemical_formula_sum              "P8 O24 C24 H16 Ce4"
_cell_length_a       5.6097
_cell_length_b       20.1193
_cell_length_c       8.3515
_cell_angle_alpha    90
_cell_angle_beta     108.63
_cell_angle_gamma    90

_space_group_name_H-M_alt    "P 1"
_space_group_IT_number       1

loop_
  _space_group_symop_operation_xyz
  'x, y, z'

loop_
  _atom_site_type_symbol
  _atom_site_label
  _atom_site_symmetry_multiplicity
  _atom_site_fract_x
  _atom_site_fract_y
  _atom_site_fract_z
  _atom_site_occupancy
  P   P1        1.0  0.58392  0.16031  0.94979  1.0000
  O   O1        1.0  0.70345  0.16671  0.16730  1.0000
  O   O2        1.0  0.88190  0.16281  0.91829  1.0000
  O   O3        1.0  0.43617  0.23818  0.94897  1.0000
  C   C1        1.0  0.67890  0.02242  0.93107  1.0000
  C   C2        1.0  0.34066  0.04615  0.04117  1.0000
  C   C3        1.0  0.51777  0.06953  0.96935  1.0000
  H   H1        1.0  0.81773  0.03855  0.87480  1.0000
  C   C4        1.0  0.32110  0.97758  0.06893  1.0000
  C   C5        1.0  0.65934  0.95385  0.95883  1.0000
  H   H2        1.0  0.22209  0.08067  0.07962  1.0000
  C   C6        1.0  0.48223  0.93047  0.03065  1.0000
  H   H3        1.0  0.77791  0.91933  0.92038  1.0000
  H   H4        1.0  0.18227  0.96145  0.12520  1.0000
  O   O4        1.0  0.29655  0.83329  0.83270  1.0000
  O   O5        1.0  0.56383  0.76182  0.05103  1.0000
  P   P2        1.0  0.41608  0.83969  0.05021  1.0000
  O   O6        1.0  0.11810  0.83719  0.08171  1.0000
  P   P3        1.0  0.91608  0.33969  0.05021  1.0000
  O   O7        1.0  0.79655  0.33329  0.83270  1.0000
  P   P4        1.0  0.08392  0.66031  0.94979  1.0000
  O   O8        1.0  0.20345  0.66671  0.16730  1.0000
  O   O9        1.0  0.38190  0.66281  0.91829  1.0000
  O   O10       1.0  0.93617  0.73818  0.94897  1.0000
  C   C7        1.0  0.17890  0.52242  0.93107  1.0000
  C   C8        1.0  0.84066  0.54615  0.04117  1.0000
  C   C9        1.0  0.01777  0.56953  0.96935  1.0000
  H   H5        1.0  0.31773  0.53855  0.87480  1.0000
  H   H6        1.0  0.72209  0.58067  0.07962  1.0000
  C   C10       1.0  0.15934  0.45385  0.95883  1.0000
  C   C11       1.0  0.82110  0.47758  0.06893  1.0000
  C   C12       1.0  0.98223  0.43047  0.03065  1.0000
  H   H7        1.0  0.27791  0.41933  0.92038  1.0000
  H   H8        1.0  0.68227  0.46145  0.12520  1.0000
  O   O11       1.0  0.61810  0.33719  0.08171  1.0000
  O   O12       1.0  0.06383  0.26182  0.05103  1.0000
  O   O13       1.0  0.88190  0.83719  0.41829  1.0000
  C   C13       1.0  0.67890  0.97758  0.43107  1.0000
  O   O14       1.0  0.70345  0.83329  0.66730  1.0000
  O   O15       1.0  0.43617  0.76182  0.44897  1.0000
  P   P5        1.0  0.41608  0.16031  0.55021  1.0000
  O   O16       1.0  0.29655  0.16671  0.33270  1.0000
  O   O17       1.0  0.11810  0.16281  0.58171  1.0000
  O   O18       1.0  0.56383  0.23818  0.55103  1.0000
  C   C14       1.0  0.32110  0.02242  0.56893  1.0000
  C   C15       1.0  0.65934  0.04615  0.45883  1.0000
  C   C16       1.0  0.48223  0.06953  0.53065  1.0000
  H   H9        1.0  0.18227  0.03855  0.62520  1.0000
  H   H10       1.0  0.77791  0.08067  0.42038  1.0000
  C   C17       1.0  0.34066  0.95385  0.54117  1.0000
  C   C18       1.0  0.51777  0.93047  0.46935  1.0000
  H   H11       1.0  0.81773  0.96145  0.37480  1.0000
  H   H12       1.0  0.22209  0.91933  0.57962  1.0000
  P   P6        1.0  0.58392  0.83969  0.44979  1.0000
  C   C19       1.0  0.15934  0.54615  0.45883  1.0000
  C   C20       1.0  0.98223  0.56953  0.53065  1.0000
  H   H13       1.0  0.68227  0.53855  0.62520  1.0000
  H   H14       1.0  0.27791  0.58067  0.42038  1.0000
  C   C21       1.0  0.84066  0.45385  0.54117  1.0000
  C   C22       1.0  0.17890  0.47758  0.43107  1.0000
  C   C23       1.0  0.01777  0.43047  0.46935  1.0000
  H   H15       1.0  0.72209  0.41933  0.57962  1.0000
  H   H16       1.0  0.31773  0.46145  0.37480  1.0000
  O   O19       1.0  0.93617  0.26182  0.44897  1.0000
  O   O20       1.0  0.38190  0.33719  0.41829  1.0000
  O   O21       1.0  0.20345  0.33329  0.66730  1.0000
  P   P7        1.0  0.08392  0.33969  0.44979  1.0000
  P   P8        1.0  0.91608  0.66031  0.55021  1.0000
  O   O22       1.0  0.79655  0.66671  0.33270  1.0000
  O   O23       1.0  0.61810  0.66281  0.58171  1.0000
  O   O24       1.0  0.06383  0.73818  0.55103  1.0000
  C   C24       1.0  0.82110  0.52242  0.56893  1.0000
  Ce  Ce1       1.0  0.50000  0.25681  0.25000  1.0000
  Ce  Ce2       1.0  0.00000  0.75681  0.25000  1.0000
  Ce  Ce3       1.0  0.50000  0.74319  0.75000  1.0000
  Ce  Ce4       1.0  1.00000  0.24319  0.75000  1.0000
