data_image0
_chemical_formula_structural       PO3C3HC2HCH2O2POPOPO3C3H2C3H2O3CO2PO3C3H2C2H2PC2H2C3H2O3P2O3CSm4
_chemical_formula_sum              "P8 O24 C24 H16 Sm4"
_cell_length_a       5.5337
_cell_length_b       20.0091
_cell_length_c       8.2016
_cell_angle_alpha    90
_cell_angle_beta     108.457
_cell_angle_gamma    90

_space_group_name_H-M_alt    "P 1"
_space_group_IT_number       1

loop_
  _space_group_symop_operation_xyz
  'x, y, z'

loop_
  _atom_site_type_symbol
  _atom_site_label
  _atom_site_symmetry_multiplicity
  _atom_site_fract_x
  _atom_site_fract_y
  _atom_site_fract_z
  _atom_site_occupancy
  P   P1        1.0  0.58244  0.16097  0.95014  1.0000
  O   O1        1.0  0.70649  0.16795  0.17049  1.0000
  O   O2        1.0  0.88079  0.16273  0.91276  1.0000
  O   O3        1.0  0.43276  0.23922  0.94880  1.0000
  C   C1        1.0  0.68148  0.02289  0.93050  1.0000
  C   C2        1.0  0.33793  0.04608  0.04271  1.0000
  C   C3        1.0  0.51735  0.06987  0.97013  1.0000
  H   H1        1.0  0.82091  0.03932  0.87230  1.0000
  C   C4        1.0  0.31852  0.97711  0.06950  1.0000
  C   C5        1.0  0.66207  0.95392  0.95729  1.0000
  H   H2        1.0  0.21772  0.08050  0.08274  1.0000
  C   C6        1.0  0.48265  0.93013  0.02987  1.0000
  H   H3        1.0  0.78228  0.91950  0.91726  1.0000
  H   H4        1.0  0.17909  0.96068  0.12770  1.0000
  O   O4        1.0  0.29351  0.83205  0.82951  1.0000
  O   O5        1.0  0.56724  0.76078  0.05120  1.0000
  P   P2        1.0  0.41756  0.83903  0.04986  1.0000
  O   O6        1.0  0.11921  0.83727  0.08724  1.0000
  P   P3        1.0  0.91756  0.33903  0.04986  1.0000
  O   O7        1.0  0.79351  0.33205  0.82951  1.0000
  P   P4        1.0  0.08244  0.66097  0.95014  1.0000
  O   O8        1.0  0.20649  0.66795  0.17049  1.0000
  O   O9        1.0  0.38079  0.66273  0.91276  1.0000
  O   O10       1.0  0.93276  0.73922  0.94880  1.0000
  C   C7        1.0  0.18148  0.52289  0.93050  1.0000
  C   C8        1.0  0.83793  0.54608  0.04271  1.0000
  C   C9        1.0  0.01735  0.56987  0.97013  1.0000
  H   H5        1.0  0.32091  0.53932  0.87230  1.0000
  H   H6        1.0  0.71772  0.58050  0.08274  1.0000
  C   C10       1.0  0.16207  0.45392  0.95729  1.0000
  C   C11       1.0  0.81852  0.47711  0.06950  1.0000
  C   C12       1.0  0.98265  0.43013  0.02987  1.0000
  H   H7        1.0  0.28228  0.41950  0.91726  1.0000
  H   H8        1.0  0.67909  0.46068  0.12770  1.0000
  O   O11       1.0  0.61921  0.33727  0.08724  1.0000
  O   O12       1.0  0.06724  0.26078  0.05120  1.0000
  O   O13       1.0  0.88079  0.83727  0.41276  1.0000
  C   C13       1.0  0.68148  0.97711  0.43050  1.0000
  O   O14       1.0  0.70649  0.83205  0.67049  1.0000
  O   O15       1.0  0.43276  0.76078  0.44880  1.0000
  P   P5        1.0  0.41756  0.16097  0.54986  1.0000
  O   O16       1.0  0.29351  0.16795  0.32951  1.0000
  O   O17       1.0  0.11921  0.16273  0.58724  1.0000
  O   O18       1.0  0.56724  0.23922  0.55120  1.0000
  C   C14       1.0  0.31852  0.02289  0.56950  1.0000
  C   C15       1.0  0.66207  0.04608  0.45729  1.0000
  C   C16       1.0  0.48265  0.06987  0.52987  1.0000
  H   H9        1.0  0.17909  0.03932  0.62770  1.0000
  H   H10       1.0  0.78228  0.08050  0.41726  1.0000
  C   C17       1.0  0.33793  0.95392  0.54271  1.0000
  C   C18       1.0  0.51735  0.93013  0.47013  1.0000
  H   H11       1.0  0.82091  0.96068  0.37230  1.0000
  H   H12       1.0  0.21772  0.91950  0.58274  1.0000
  P   P6        1.0  0.58244  0.83903  0.45014  1.0000
  C   C19       1.0  0.16207  0.54608  0.45729  1.0000
  C   C20       1.0  0.98265  0.56987  0.52987  1.0000
  H   H13       1.0  0.67909  0.53932  0.62770  1.0000
  H   H14       1.0  0.28228  0.58050  0.41726  1.0000
  C   C21       1.0  0.83793  0.45392  0.54271  1.0000
  C   C22       1.0  0.18148  0.47711  0.43050  1.0000
  C   C23       1.0  0.01735  0.43013  0.47013  1.0000
  H   H15       1.0  0.71772  0.41950  0.58274  1.0000
  H   H16       1.0  0.32091  0.46068  0.37230  1.0000
  O   O19       1.0  0.93276  0.26078  0.44880  1.0000
  O   O20       1.0  0.38079  0.33727  0.41276  1.0000
  O   O21       1.0  0.20649  0.33205  0.67049  1.0000
  P   P7        1.0  0.08244  0.33903  0.45014  1.0000
  P   P8        1.0  0.91756  0.66097  0.54986  1.0000
  O   O22       1.0  0.79351  0.66795  0.32951  1.0000
  O   O23       1.0  0.61921  0.66273  0.58724  1.0000
  O   O24       1.0  0.06724  0.73922  0.55120  1.0000
  C   C24       1.0  0.81852  0.52289  0.56950  1.0000
  Sm  Sm1       1.0  0.50000  0.25650  0.25000  1.0000
  Sm  Sm2       1.0  0.00000  0.75650  0.25000  1.0000
  Sm  Sm3       1.0  0.50000  0.74350  0.75000  1.0000
  Sm  Sm4       1.0  0.00000  0.24350  0.75000  1.0000
