data_image0
_chemical_formula_structural       PO3C3HC2HCH2O2POPOPO3C3H2C3H2O3CO2PO3C3H2C2H2PC2H2C3H2O3P2O3CNd4
_chemical_formula_sum              "P8 O24 C24 H16 Nd4"
_cell_length_a       5.5674
_cell_length_b       20.0811
_cell_length_c       8.2694
_cell_angle_alpha    90
_cell_angle_beta     108.498
_cell_angle_gamma    90

_space_group_name_H-M_alt    "P 1"
_space_group_IT_number       1

loop_
  _space_group_symop_operation_xyz
  'x, y, z'

loop_
  _atom_site_type_symbol
  _atom_site_label
  _atom_site_symmetry_multiplicity
  _atom_site_fract_x
  _atom_site_fract_y
  _atom_site_fract_z
  _atom_site_occupancy
  P   P1        1.0  0.58030  0.15860  0.99356  1.0000
  O   O1        1.0  0.77458  0.18826  0.18078  1.0000
  O   O2        1.0  0.73069  0.16411  0.83324  1.0000
  O   O3        1.0  0.30560  0.20120  0.00323  1.0000
  C   C1        1.0  0.69456  0.02609  0.94866  1.0000
  C   C2        1.0  0.34725  0.04245  0.06017  1.0000
  C   C3        1.0  0.54521  0.06869  0.01196  1.0000
  H   H1        1.0  0.83831  0.04585  0.90014  1.0000
  C   C4        1.0  0.30544  0.97391  0.05134  1.0000
  C   C5        1.0  0.65275  0.95755  0.93983  1.0000
  H   H2        1.0  0.22884  0.07476  0.10733  1.0000
  C   C6        1.0  0.45479  0.93131  0.98804  1.0000
  H   H3        1.0  0.77116  0.92524  0.89267  1.0000
  H   H4        1.0  0.16169  0.95415  0.09986  1.0000
  O   O4        1.0  0.69440  0.79880  0.99677  1.0000
  O   O5        1.0  0.26931  0.83589  0.16676  1.0000
  P   P2        1.0  0.41970  0.84140  0.00644  1.0000
  O   O6        1.0  0.22542  0.81174  0.81922  1.0000
  P   P3        1.0  0.91970  0.34140  0.00644  1.0000
  O   O7        1.0  0.72542  0.31174  0.81922  1.0000
  P   P4        1.0  0.08030  0.65860  0.99356  1.0000
  O   O8        1.0  0.27458  0.68826  0.18078  1.0000
  O   O9        1.0  0.23069  0.66411  0.83324  1.0000
  O   O10       1.0  0.80560  0.70120  0.00323  1.0000
  C   C7        1.0  0.19456  0.52609  0.94866  1.0000
  C   C8        1.0  0.84725  0.54245  0.06017  1.0000
  C   C9        1.0  0.04521  0.56869  0.01196  1.0000
  H   H5        1.0  0.33831  0.54585  0.90014  1.0000
  H   H6        1.0  0.72884  0.57476  0.10733  1.0000
  C   C10       1.0  0.15275  0.45755  0.93983  1.0000
  C   C11       1.0  0.80544  0.47391  0.05134  1.0000
  C   C12       1.0  0.95479  0.43131  0.98804  1.0000
  H   H7        1.0  0.27116  0.42524  0.89267  1.0000
  H   H8        1.0  0.66169  0.45415  0.09986  1.0000
  O   O11       1.0  0.76931  0.33589  0.16676  1.0000
  O   O12       1.0  0.19440  0.29880  0.99677  1.0000
  O   O13       1.0  0.73069  0.83589  0.33324  1.0000
  C   C13       1.0  0.69456  0.97391  0.44866  1.0000
  O   O14       1.0  0.77458  0.81174  0.68078  1.0000
  O   O15       1.0  0.30560  0.79880  0.50323  1.0000
  P   P5        1.0  0.41970  0.15860  0.50644  1.0000
  O   O16       1.0  0.22542  0.18826  0.31922  1.0000
  O   O17       1.0  0.26931  0.16411  0.66676  1.0000
  O   O18       1.0  0.69440  0.20120  0.49677  1.0000
  C   C14       1.0  0.30544  0.02609  0.55134  1.0000
  C   C15       1.0  0.65275  0.04245  0.43983  1.0000
  C   C16       1.0  0.45479  0.06869  0.48804  1.0000
  H   H9        1.0  0.16169  0.04585  0.59986  1.0000
  H   H10       1.0  0.77116  0.07476  0.39267  1.0000
  C   C17       1.0  0.34725  0.95755  0.56017  1.0000
  C   C18       1.0  0.54521  0.93131  0.51196  1.0000
  H   H11       1.0  0.83831  0.95415  0.40014  1.0000
  H   H12       1.0  0.22884  0.92524  0.60733  1.0000
  P   P6        1.0  0.58030  0.84140  0.49356  1.0000
  C   C19       1.0  0.15275  0.54245  0.43983  1.0000
  C   C20       1.0  0.95479  0.56869  0.48804  1.0000
  H   H13       1.0  0.66169  0.54585  0.59986  1.0000
  H   H14       1.0  0.27116  0.57476  0.39267  1.0000
  C   C21       1.0  0.84725  0.45755  0.56017  1.0000
  C   C22       1.0  0.19456  0.47391  0.44866  1.0000
  C   C23       1.0  0.04521  0.43131  0.51196  1.0000
  H   H15       1.0  0.72884  0.42524  0.60733  1.0000
  H   H16       1.0  0.33831  0.45415  0.40014  1.0000
  O   O19       1.0  0.80560  0.29880  0.50323  1.0000
  O   O20       1.0  0.23069  0.33589  0.33324  1.0000
  O   O21       1.0  0.27458  0.31174  0.68078  1.0000
  P   P7        1.0  0.08030  0.34140  0.49356  1.0000
  P   P8        1.0  0.91970  0.65860  0.50644  1.0000
  O   O22       1.0  0.72542  0.68826  0.31922  1.0000
  O   O23       1.0  0.76931  0.66411  0.66676  1.0000
  O   O24       1.0  0.19440  0.70120  0.49677  1.0000
  C   C24       1.0  0.80544  0.52609  0.55134  1.0000
  Nd  Nd1       1.0  0.50000  0.26177  0.25000  1.0000
  Nd  Nd2       1.0  0.00000  0.76177  0.25000  1.0000
  Nd  Nd3       1.0  0.50000  0.73823  0.75000  1.0000
  Nd  Nd4       1.0  0.00000  0.23823  0.75000  1.0000
