data_image0
_chemical_formula_structural       PO3C3HC2HCH2O2POPOPO3C3H2C3H2O3CO2PO3C3H2C2H2PC2H2C3H2O3P2O3CHo4
_chemical_formula_sum              "P8 O24 C24 H16 Ho4"
_cell_length_a       5.4422
_cell_length_b       19.8901
_cell_length_c       8.0821
_cell_angle_alpha    90
_cell_angle_beta     108.172
_cell_angle_gamma    90

_space_group_name_H-M_alt    "P 1"
_space_group_IT_number       1

loop_
  _space_group_symop_operation_xyz
  'x, y, z'

loop_
  _atom_site_type_symbol
  _atom_site_label
  _atom_site_symmetry_multiplicity
  _atom_site_fract_x
  _atom_site_fract_y
  _atom_site_fract_z
  _atom_site_occupancy
  P   P1        1.0  0.57802  0.16220  0.95012  1.0000
  O   O1        1.0  0.71059  0.16995  0.17237  1.0000
  O   O2        1.0  0.87414  0.16286  0.90101  1.0000
  O   O3        1.0  0.42413  0.24054  0.95063  1.0000
  C   C1        1.0  0.68360  0.02365  0.92960  1.0000
  C   C2        1.0  0.33462  0.04587  0.04496  1.0000
  C   C3        1.0  0.51602  0.07044  0.97137  1.0000
  H   H1        1.0  0.82317  0.04047  0.86889  1.0000
  C   C4        1.0  0.31640  0.97635  0.07040  1.0000
  C   C5        1.0  0.66538  0.95413  0.95504  1.0000
  H   H2        1.0  0.21199  0.08007  0.08681  1.0000
  C   C6        1.0  0.48398  0.92956  0.02863  1.0000
  H   H3        1.0  0.78801  0.91993  0.91319  1.0000
  H   H4        1.0  0.17683  0.95953  0.13111  1.0000
  O   O4        1.0  0.28941  0.83005  0.82763  1.0000
  O   O5        1.0  0.57587  0.75946  0.04937  1.0000
  P   P2        1.0  0.42198  0.83780  0.04988  1.0000
  O   O6        1.0  0.12586  0.83714  0.09899  1.0000
  P   P3        1.0  0.92198  0.33780  0.04988  1.0000
  O   O7        1.0  0.78941  0.33005  0.82763  1.0000
  P   P4        1.0  0.07802  0.66220  0.95012  1.0000
  O   O8        1.0  0.21059  0.66995  0.17237  1.0000
  O   O9        1.0  0.37414  0.66286  0.90101  1.0000
  O   O10       1.0  0.92413  0.74054  0.95063  1.0000
  C   C7        1.0  0.18360  0.52365  0.92960  1.0000
  C   C8        1.0  0.83462  0.54587  0.04496  1.0000
  C   C9        1.0  0.01602  0.57044  0.97137  1.0000
  H   H5        1.0  0.32317  0.54047  0.86889  1.0000
  H   H6        1.0  0.71199  0.58007  0.08681  1.0000
  C   C10       1.0  0.16538  0.45413  0.95504  1.0000
  C   C11       1.0  0.81640  0.47635  0.07040  1.0000
  C   C12       1.0  0.98398  0.42956  0.02863  1.0000
  H   H7        1.0  0.28801  0.41993  0.91319  1.0000
  H   H8        1.0  0.67683  0.45953  0.13111  1.0000
  O   O11       1.0  0.62586  0.33714  0.09899  1.0000
  O   O12       1.0  0.07587  0.25946  0.04937  1.0000
  O   O13       1.0  0.87414  0.83714  0.40101  1.0000
  C   C13       1.0  0.68360  0.97635  0.42960  1.0000
  O   O14       1.0  0.71059  0.83005  0.67237  1.0000
  O   O15       1.0  0.42413  0.75946  0.45063  1.0000
  P   P5        1.0  0.42198  0.16220  0.54988  1.0000
  O   O16       1.0  0.28941  0.16995  0.32763  1.0000
  O   O17       1.0  0.12586  0.16286  0.59899  1.0000
  O   O18       1.0  0.57587  0.24054  0.54937  1.0000
  C   C14       1.0  0.31640  0.02365  0.57040  1.0000
  C   C15       1.0  0.66538  0.04587  0.45504  1.0000
  C   C16       1.0  0.48398  0.07044  0.52863  1.0000
  H   H9        1.0  0.17683  0.04047  0.63111  1.0000
  H   H10       1.0  0.78801  0.08007  0.41319  1.0000
  C   C17       1.0  0.33462  0.95413  0.54496  1.0000
  C   C18       1.0  0.51602  0.92956  0.47137  1.0000
  H   H11       1.0  0.82317  0.95953  0.36889  1.0000
  H   H12       1.0  0.21199  0.91993  0.58681  1.0000
  P   P6        1.0  0.57802  0.83780  0.45012  1.0000
  C   C19       1.0  0.16538  0.54587  0.45504  1.0000
  C   C20       1.0  0.98398  0.57044  0.52863  1.0000
  H   H13       1.0  0.67683  0.54047  0.63111  1.0000
  H   H14       1.0  0.28801  0.58007  0.41319  1.0000
  C   C21       1.0  0.83462  0.45413  0.54496  1.0000
  C   C22       1.0  0.18360  0.47635  0.42960  1.0000
  C   C23       1.0  0.01602  0.42956  0.47137  1.0000
  H   H15       1.0  0.71199  0.41993  0.58681  1.0000
  H   H16       1.0  0.32317  0.45953  0.36889  1.0000
  O   O19       1.0  0.92413  0.25946  0.45063  1.0000
  O   O20       1.0  0.37414  0.33714  0.40101  1.0000
  O   O21       1.0  0.21059  0.33005  0.67237  1.0000
  P   P7        1.0  0.07802  0.33780  0.45012  1.0000
  P   P8        1.0  0.92198  0.66220  0.54988  1.0000
  O   O22       1.0  0.78941  0.66995  0.32763  1.0000
  O   O23       1.0  0.62586  0.66286  0.59899  1.0000
  O   O24       1.0  0.07587  0.74054  0.54937  1.0000
  C   C24       1.0  0.81640  0.52365  0.57040  1.0000
  Ho  Ho1       1.0  0.50000  0.25570  0.25000  1.0000
  Ho  Ho2       1.0  0.00000  0.75570  0.25000  1.0000
  Ho  Ho3       1.0  0.50000  0.74430  0.75000  1.0000
  Ho  Ho4       1.0  0.00000  0.24430  0.75000  1.0000
