data_image0
_chemical_formula_structural       PO3C3HC2HCH2O2POPOPO3C3H2C3H2O3CO2PO3C3H2C2H2PC2H2C3H2O3P2O3CGd4
_chemical_formula_sum              "P8 O24 C24 H16 Gd4"
_cell_length_a       5.4973
_cell_length_b       19.9857
_cell_length_c       8.1565
_cell_angle_alpha    90
_cell_angle_beta     108.296
_cell_angle_gamma    90

_space_group_name_H-M_alt    "P 1"
_space_group_IT_number       1

loop_
  _space_group_symop_operation_xyz
  'x, y, z'

loop_
  _atom_site_type_symbol
  _atom_site_label
  _atom_site_symmetry_multiplicity
  _atom_site_fract_x
  _atom_site_fract_y
  _atom_site_fract_z
  _atom_site_occupancy
  P   P1        1.0  0.58092  0.16126  0.95025  1.0000
  O   O1        1.0  0.70809  0.16856  0.17119  1.0000
  O   O2        1.0  0.87859  0.16266  0.90872  1.0000
  O   O3        1.0  0.43030  0.23956  0.94922  1.0000
  C   C1        1.0  0.68239  0.02315  0.93012  1.0000
  C   C2        1.0  0.33660  0.04595  0.04356  1.0000
  C   C3        1.0  0.51689  0.07001  0.97057  1.0000
  H   H1        1.0  0.82203  0.03972  0.87101  1.0000
  C   C4        1.0  0.31761  0.97685  0.06988  1.0000
  C   C5        1.0  0.66340  0.95405  0.95644  1.0000
  H   H2        1.0  0.21542  0.08026  0.08427  1.0000
  C   C6        1.0  0.48311  0.92999  0.02943  1.0000
  H   H3        1.0  0.78458  0.91974  0.91573  1.0000
  H   H4        1.0  0.17797  0.96028  0.12899  1.0000
  O   O4        1.0  0.29191  0.83144  0.82881  1.0000
  O   O5        1.0  0.56970  0.76044  0.05078  1.0000
  P   P2        1.0  0.41908  0.83874  0.04975  1.0000
  O   O6        1.0  0.12141  0.83734  0.09128  1.0000
  P   P3        1.0  0.91908  0.33874  0.04975  1.0000
  O   O7        1.0  0.79191  0.33144  0.82881  1.0000
  P   P4        1.0  0.08092  0.66126  0.95025  1.0000
  O   O8        1.0  0.20809  0.66856  0.17119  1.0000
  O   O9        1.0  0.37859  0.66266  0.90872  1.0000
  O   O10       1.0  0.93030  0.73956  0.94922  1.0000
  C   C7        1.0  0.18239  0.52315  0.93012  1.0000
  C   C8        1.0  0.83660  0.54595  0.04356  1.0000
  C   C9        1.0  0.01689  0.57001  0.97057  1.0000
  H   H5        1.0  0.32203  0.53972  0.87101  1.0000
  H   H6        1.0  0.71542  0.58026  0.08427  1.0000
  C   C10       1.0  0.16340  0.45405  0.95644  1.0000
  C   C11       1.0  0.81761  0.47685  0.06988  1.0000
  C   C12       1.0  0.98311  0.42999  0.02943  1.0000
  H   H7        1.0  0.28458  0.41974  0.91573  1.0000
  H   H8        1.0  0.67797  0.46028  0.12899  1.0000
  O   O11       1.0  0.62141  0.33734  0.09128  1.0000
  O   O12       1.0  0.06970  0.26044  0.05078  1.0000
  O   O13       1.0  0.87859  0.83734  0.40872  1.0000
  C   C13       1.0  0.68239  0.97685  0.43012  1.0000
  O   O14       1.0  0.70809  0.83144  0.67119  1.0000
  O   O15       1.0  0.43030  0.76044  0.44922  1.0000
  P   P5        1.0  0.41908  0.16126  0.54975  1.0000
  O   O16       1.0  0.29191  0.16856  0.32881  1.0000
  O   O17       1.0  0.12141  0.16266  0.59128  1.0000
  O   O18       1.0  0.56970  0.23956  0.55078  1.0000
  C   C14       1.0  0.31761  0.02315  0.56988  1.0000
  C   C15       1.0  0.66340  0.04595  0.45644  1.0000
  C   C16       1.0  0.48311  0.07001  0.52943  1.0000
  H   H9        1.0  0.17797  0.03972  0.62899  1.0000
  H   H10       1.0  0.78458  0.08026  0.41573  1.0000
  C   C17       1.0  0.33660  0.95405  0.54356  1.0000
  C   C18       1.0  0.51689  0.92999  0.47057  1.0000
  H   H11       1.0  0.82203  0.96028  0.37101  1.0000
  H   H12       1.0  0.21542  0.91974  0.58427  1.0000
  P   P6        1.0  0.58092  0.83874  0.45025  1.0000
  C   C19       1.0  0.16340  0.54595  0.45644  1.0000
  C   C20       1.0  0.98311  0.57001  0.52943  1.0000
  H   H13       1.0  0.67797  0.53972  0.62899  1.0000
  H   H14       1.0  0.28458  0.58026  0.41573  1.0000
  C   C21       1.0  0.83660  0.45405  0.54356  1.0000
  C   C22       1.0  0.18239  0.47685  0.43012  1.0000
  C   C23       1.0  0.01689  0.42999  0.47057  1.0000
  H   H15       1.0  0.71542  0.41974  0.58427  1.0000
  H   H16       1.0  0.32203  0.46028  0.37101  1.0000
  O   O19       1.0  0.93030  0.26044  0.44922  1.0000
  O   O20       1.0  0.37859  0.33734  0.40872  1.0000
  O   O21       1.0  0.20809  0.33144  0.67119  1.0000
  P   P7        1.0  0.08092  0.33874  0.45025  1.0000
  P   P8        1.0  0.91908  0.66126  0.54975  1.0000
  O   O22       1.0  0.79191  0.66856  0.32881  1.0000
  O   O23       1.0  0.62141  0.66266  0.59128  1.0000
  O   O24       1.0  0.06970  0.73956  0.55078  1.0000
  C   C24       1.0  0.81761  0.52315  0.56988  1.0000
  Gd  Gd1       1.0  0.50000  0.25624  0.25000  1.0000
  Gd  Gd2       1.0  0.00000  0.75624  0.25000  1.0000
  Gd  Gd3       1.0  0.50000  0.74376  0.75000  1.0000
  Gd  Gd4       1.0  0.00000  0.24376  0.75000  1.0000
