data_image0
_chemical_formula_structural       N3CHCHN3CHCHN3CHCHN3CHCHN2CHCHN4CHCHN3CHCHN3CHCHNCHCHN2HN3CHCHN3CHCHCHN3CO2CO2CO2CO2CZn8
_chemical_formula_sum              "N36 C28 H24 O8 Zn8"
_cell_length_a       7.6236
_cell_length_b       9.9852
_cell_length_c       17.5606
_cell_angle_alpha    90
_cell_angle_beta     90
_cell_angle_gamma    90

_space_group_name_H-M_alt    "P 1"
_space_group_IT_number       1

loop_
  _space_group_symop_operation_xyz
  'x, y, z'

loop_
  _atom_site_type_symbol
  _atom_site_label
  _atom_site_symmetry_multiplicity
  _atom_site_fract_x
  _atom_site_fract_y
  _atom_site_fract_z
  _atom_site_occupancy
  N   N1        1.0  0.16555  0.10681  0.20118  1.0000
  N   N2        1.0  0.26907  0.92185  0.13910  1.0000
  N   N3        1.0  0.34122  0.10989  0.20474  1.0000
  C   C1        1.0  0.39954  0.00032  0.16727  1.0000
  H   H1        1.0  0.53707  0.98011  0.15978  1.0000
  C   C2        1.0  0.12441  0.99259  0.16169  1.0000
  H   H2        1.0  0.99136  0.96182  0.14946  1.0000
  N   N4        1.0  0.33537  0.89101  0.70167  1.0000
  N   N5        1.0  0.23484  0.07730  0.64016  1.0000
  N   N6        1.0  0.15963  0.89054  0.70642  1.0000
  C   C3        1.0  0.10300  0.00182  0.66965  1.0000
  H   H3        1.0  0.96579  0.02698  0.66371  1.0000
  C   C4        1.0  0.37830  0.00446  0.66184  1.0000
  H   H4        1.0  0.51174  0.03342  0.64893  1.0000
  N   N7        1.0  0.83493  0.60908  0.79890  1.0000
  N   N8        1.0  0.73166  0.42366  0.86083  1.0000
  N   N9        1.0  0.65943  0.61084  0.79434  1.0000
  C   C5        1.0  0.60123  0.50129  0.83186  1.0000
  H   H5        1.0  0.46369  0.48087  0.83911  1.0000
  C   C6        1.0  0.87618  0.49515  0.83872  1.0000
  H   H6        1.0  0.00924  0.46502  0.85145  1.0000
  N   N10       1.0  0.66540  0.38938  0.29784  1.0000
  N   N11       1.0  0.76785  0.57526  0.35940  1.0000
  N   N12       1.0  0.84093  0.38761  0.29334  1.0000
  C   C7        1.0  0.89856  0.49915  0.32926  1.0000
  H   H7        1.0  0.03571  0.52430  0.33286  1.0000
  C   C8        1.0  0.62372  0.50295  0.33784  1.0000
  H   H8        1.0  0.49058  0.53244  0.35090  1.0000
  N   N13       1.0  0.73117  0.07658  0.86073  1.0000
  N   N14       1.0  0.65918  0.88896  0.79468  1.0000
  C   C9        1.0  0.60077  0.99842  0.83222  1.0000
  H   H9        1.0  0.46319  0.01859  0.83972  1.0000
  C   C10       1.0  0.87586  0.00568  0.83837  1.0000
  H   H10       1.0  0.00888  0.03617  0.85086  1.0000
  N   N15       1.0  0.83478  0.89162  0.79874  1.0000
  N   N16       1.0  0.66486  0.10749  0.29864  1.0000
  N   N17       1.0  0.76550  0.92104  0.35989  1.0000
  N   N18       1.0  0.84053  0.10784  0.29347  1.0000
  C   C11       1.0  0.89722  0.99635  0.33009  1.0000
  H   H11       1.0  0.03442  0.97094  0.33576  1.0000
  C   C12       1.0  0.62204  0.99405  0.33848  1.0000
  H   H12       1.0  0.48863  0.96520  0.35156  1.0000
  N   N19       1.0  0.16519  0.38958  0.20117  1.0000
  N   N20       1.0  0.26873  0.57482  0.13934  1.0000
  N   N21       1.0  0.34069  0.38784  0.20608  1.0000
  C   C13       1.0  0.39907  0.49738  0.16858  1.0000
  H   H13       1.0  0.53665  0.51796  0.16154  1.0000
  C   C14       1.0  0.12411  0.50330  0.16119  1.0000
  H   H14       1.0  0.99112  0.53322  0.14815  1.0000
  N   N22       1.0  0.33490  0.60933  0.70169  1.0000
  N   N23       1.0  0.23240  0.42313  0.64044  1.0000
  N   N24       1.0  0.15940  0.61065  0.70668  1.0000
  C   C15       1.0  0.10176  0.49899  0.67085  1.0000
  H   H15       1.0  0.96463  0.47361  0.66745  1.0000
  C   C16       1.0  0.37653  0.49573  0.66169  1.0000
  H   H16       1.0  0.50963  0.46624  0.64860  1.0000
  N   N25       1.0  0.23393  0.24771  0.46660  1.0000
  C   C17       1.0  0.10400  0.24472  0.41338  1.0000
  H   H17       1.0  0.96636  0.24083  0.42700  1.0000
  C   C18       1.0  0.37894  0.24878  0.42064  1.0000
  H   H18       1.0  0.51187  0.25075  0.44214  1.0000
  N   N26       1.0  0.33849  0.24724  0.34452  1.0000
  N   N27       1.0  0.16289  0.24568  0.34056  1.0000
  H   H19       1.0  0.98534  0.74882  0.94180  1.0000
  N   N28       1.0  0.16036  0.74943  0.84468  1.0000
  N   N29       1.0  0.33615  0.74977  0.84115  1.0000
  N   N30       1.0  0.26296  0.74866  0.96687  1.0000
  C   C19       1.0  0.39395  0.74926  0.91427  1.0000
  H   H20       1.0  0.53153  0.74928  0.92910  1.0000
  C   C20       1.0  0.11862  0.74888  0.92064  1.0000
  H   H21       1.0  0.48747  0.74766  0.55800  1.0000
  N   N31       1.0  0.66090  0.74941  0.65563  1.0000
  N   N32       1.0  0.83656  0.75014  0.65952  1.0000
  N   N33       1.0  0.76544  0.74951  0.53349  1.0000
  C   C21       1.0  0.89538  0.75164  0.58669  1.0000
  H   H22       1.0  0.03302  0.75591  0.57307  1.0000
  C   C22       1.0  0.62042  0.74860  0.57949  1.0000
  H   H23       1.0  0.46785  0.24949  0.07099  1.0000
  C   C23       1.0  0.88075  0.24739  0.07943  1.0000
  H   H24       1.0  0.01400  0.24757  0.05824  1.0000
  N   N34       1.0  0.83906  0.24657  0.15537  1.0000
  N   N35       1.0  0.66321  0.24720  0.15898  1.0000
  N   N36       1.0  0.73641  0.24856  0.03322  1.0000
  C   C24       1.0  0.60541  0.24843  0.08584  1.0000
  O   O1        1.0  0.76188  0.41668  0.52705  1.0000
  O   O2        1.0  0.93994  0.24541  0.58282  1.0000
  C   C25       1.0  0.85074  0.33105  0.55495  1.0000
  O   O3        1.0  0.56186  0.74802  0.07579  1.0000
  O   O4        1.0  0.75450  0.74924  0.18349  1.0000
  C   C26       1.0  0.65810  0.74861  0.12969  1.0000
  O   O5        1.0  0.24622  0.25063  0.81606  1.0000
  O   O6        1.0  0.43815  0.24989  0.92399  1.0000
  C   C27       1.0  0.34226  0.25027  0.86998  1.0000
  O   O7        1.0  0.23784  0.58095  0.47287  1.0000
  O   O8        1.0  0.06012  0.75278  0.41746  1.0000
  C   C28       1.0  0.14917  0.66688  0.44515  1.0000
  Zn  Zn1       1.0  0.32319  0.74828  0.08086  1.0000
  Zn  Zn2       1.0  0.49870  0.74977  0.74839  1.0000
  Zn  Zn3       1.0  0.82170  0.74874  0.41816  1.0000
  Zn  Zn4       1.0  0.99806  0.75068  0.75237  1.0000
  Zn  Zn5       1.0  0.67684  0.24983  0.91914  1.0000
  Zn  Zn6       1.0  0.50117  0.24831  0.25216  1.0000
  Zn  Zn7       1.0  0.17830  0.24940  0.58190  1.0000
  Zn  Zn8       1.0  0.00216  0.24812  0.24750  1.0000
