data_image0
_chemical_formula_structural       PO6PC9H4C3H2CH3PO6PC10HC2H2CH4O5PC13H8PO6PC13H8POPO6PC9H4C3H2CH3PO6PC10HC2H2CH4PO6PC13H8PO6PC13H8Ga8
_chemical_formula_sum              "P16 O48 C104 H64 Ga8"
_cell_length_a       23.829
_cell_length_b       5.101
_cell_length_c       27.997
_cell_angle_alpha    90
_cell_angle_beta     77.264
_cell_angle_gamma    90

_space_group_name_H-M_alt    "P 1"
_space_group_IT_number       1

loop_
  _space_group_symop_operation_xyz
  'x, y, z'

loop_
  _atom_site_type_symbol
  _atom_site_label
  _atom_site_symmetry_multiplicity
  _atom_site_fract_x
  _atom_site_fract_y
  _atom_site_fract_z
  _atom_site_occupancy
  P   P1        1.0  0.37674  0.47982  0.56269  1.0000
  O   O1        1.0  0.33768  0.23702  0.54957  1.0000
  O   O2        1.0  0.34575  0.75760  0.55508  1.0000
  O   O3        1.0  0.43042  0.48121  0.51960  1.0000
  O   O4        1.0  0.29562  0.83449  0.97131  1.0000
  O   O5        1.0  0.24325  0.39264  0.95223  1.0000
  O   O6        1.0  0.34033  0.33571  0.97861  1.0000
  P   P2        1.0  0.30552  0.53087  0.94854  1.0000
  C   C1        1.0  0.47100  0.43291  0.75006  1.0000
  C   C2        1.0  0.40140  0.45388  0.61993  1.0000
  C   C3        1.0  0.37909  0.61817  0.65950  1.0000
  C   C4        1.0  0.40168  0.61013  0.70155  1.0000
  C   C5        1.0  0.44782  0.44130  0.70429  1.0000
  C   C6        1.0  0.47021  0.28226  0.66360  1.0000
  C   C7        1.0  0.44680  0.28528  0.62220  1.0000
  C   C8        1.0  0.42708  0.46239  0.79636  1.0000
  C   C9        1.0  0.43010  0.67765  0.82622  1.0000
  H   H1        1.0  0.34468  0.75380  0.65765  1.0000
  H   H2        1.0  0.38370  0.73984  0.73159  1.0000
  H   H3        1.0  0.50703  0.16248  0.66272  1.0000
  H   H4        1.0  0.46541  0.16216  0.59122  1.0000
  C   C10       1.0  0.38078  0.28727  0.80941  1.0000
  C   C11       1.0  0.34102  0.31789  0.85408  1.0000
  C   C12       1.0  0.39078  0.70946  0.87058  1.0000
  H   H5        1.0  0.37664  0.12332  0.78593  1.0000
  H   H6        1.0  0.46418  0.81540  0.81468  1.0000
  C   C13       1.0  0.34660  0.52745  0.88511  1.0000
  H   H7        1.0  0.30744  0.17321  0.86527  1.0000
  H   H8        1.0  0.39586  0.87209  0.89394  1.0000
  H   H9        1.0  0.65532  0.75380  0.84235  1.0000
  P   P3        1.0  0.62326  0.47982  0.93731  1.0000
  O   O7        1.0  0.66232  0.23702  0.95043  1.0000
  O   O8        1.0  0.65425  0.75760  0.94492  1.0000
  O   O9        1.0  0.56958  0.48121  0.98040  1.0000
  O   O10       1.0  0.70438  0.83449  0.52869  1.0000
  O   O11       1.0  0.75675  0.39264  0.54777  1.0000
  O   O12       1.0  0.65967  0.33571  0.52139  1.0000
  P   P4        1.0  0.69448  0.53087  0.55146  1.0000
  C   C14       1.0  0.52900  0.43291  0.74994  1.0000
  C   C15       1.0  0.59860  0.45388  0.88007  1.0000
  C   C16       1.0  0.62091  0.61817  0.84050  1.0000
  C   C17       1.0  0.59832  0.61013  0.79845  1.0000
  C   C18       1.0  0.55218  0.44130  0.79571  1.0000
  C   C19       1.0  0.52979  0.28226  0.83640  1.0000
  C   C20       1.0  0.55320  0.28528  0.87780  1.0000
  C   C21       1.0  0.57292  0.46239  0.70364  1.0000
  C   C22       1.0  0.56990  0.67765  0.67378  1.0000
  C   C23       1.0  0.60922  0.70946  0.62942  1.0000
  H   H10       1.0  0.61630  0.73984  0.76841  1.0000
  C   C24       1.0  0.65898  0.31789  0.64592  1.0000
  C   C25       1.0  0.61922  0.28727  0.69059  1.0000
  H   H11       1.0  0.53582  0.81540  0.68532  1.0000
  H   H12       1.0  0.49297  0.16248  0.83728  1.0000
  C   C26       1.0  0.65340  0.52745  0.61489  1.0000
  H   H13       1.0  0.62336  0.12332  0.71407  1.0000
  H   H14       1.0  0.69256  0.17321  0.63473  1.0000
  H   H15       1.0  0.60414  0.87209  0.60606  1.0000
  H   H16       1.0  0.53459  0.16216  0.90878  1.0000
  O   O13       1.0  0.65425  0.24240  0.44492  1.0000
  O   O14       1.0  0.56958  0.51879  0.48040  1.0000
  O   O15       1.0  0.70438  0.16551  0.02869  1.0000
  O   O16       1.0  0.75675  0.60736  0.04777  1.0000
  O   O17       1.0  0.65967  0.66429  0.02139  1.0000
  P   P5        1.0  0.69448  0.46913  0.05146  1.0000
  C   C27       1.0  0.52900  0.56709  0.24994  1.0000
  C   C28       1.0  0.59860  0.54612  0.38007  1.0000
  C   C29       1.0  0.62091  0.38183  0.34050  1.0000
  C   C30       1.0  0.59832  0.38987  0.29845  1.0000
  C   C31       1.0  0.55218  0.55870  0.29571  1.0000
  C   C32       1.0  0.52979  0.71774  0.33640  1.0000
  C   C33       1.0  0.55320  0.71472  0.37780  1.0000
  C   C34       1.0  0.57292  0.53761  0.20364  1.0000
  C   C35       1.0  0.56990  0.32235  0.17378  1.0000
  C   C36       1.0  0.60922  0.29054  0.12942  1.0000
  C   C37       1.0  0.65340  0.47255  0.11489  1.0000
  C   C38       1.0  0.65898  0.68211  0.14592  1.0000
  C   C39       1.0  0.61922  0.71273  0.19059  1.0000
  H   H17       1.0  0.65532  0.24620  0.34235  1.0000
  H   H18       1.0  0.61630  0.26016  0.26841  1.0000
  H   H19       1.0  0.49297  0.83752  0.33728  1.0000
  H   H20       1.0  0.53459  0.83784  0.40878  1.0000
  H   H21       1.0  0.53582  0.18460  0.18532  1.0000
  H   H22       1.0  0.60414  0.12791  0.10606  1.0000
  H   H23       1.0  0.69256  0.82679  0.13473  1.0000
  H   H24       1.0  0.62336  0.87668  0.21407  1.0000
  P   P6        1.0  0.37674  0.52018  0.06269  1.0000
  O   O18       1.0  0.33768  0.76298  0.04957  1.0000
  O   O19       1.0  0.34575  0.24240  0.05508  1.0000
  O   O20       1.0  0.43042  0.51879  0.01960  1.0000
  O   O21       1.0  0.29562  0.16551  0.47131  1.0000
  O   O22       1.0  0.24325  0.60736  0.45223  1.0000
  O   O23       1.0  0.34033  0.66429  0.47861  1.0000
  P   P7        1.0  0.30552  0.46913  0.44854  1.0000
  C   C40       1.0  0.47100  0.56709  0.25006  1.0000
  C   C41       1.0  0.40140  0.54612  0.11993  1.0000
  C   C42       1.0  0.37909  0.38183  0.15950  1.0000
  C   C43       1.0  0.40168  0.38987  0.20155  1.0000
  C   C44       1.0  0.44782  0.55870  0.20429  1.0000
  C   C45       1.0  0.47021  0.71774  0.16360  1.0000
  C   C46       1.0  0.44680  0.71472  0.12220  1.0000
  C   C47       1.0  0.42708  0.53761  0.29636  1.0000
  C   C48       1.0  0.43010  0.32235  0.32622  1.0000
  C   C49       1.0  0.39078  0.29054  0.37058  1.0000
  C   C50       1.0  0.34660  0.47255  0.38511  1.0000
  C   C51       1.0  0.34102  0.68211  0.35408  1.0000
  C   C52       1.0  0.38078  0.71273  0.30941  1.0000
  H   H25       1.0  0.34468  0.24620  0.15765  1.0000
  H   H26       1.0  0.38370  0.26016  0.23159  1.0000
  H   H27       1.0  0.50703  0.83752  0.16272  1.0000
  H   H28       1.0  0.46541  0.83784  0.09122  1.0000
  H   H29       1.0  0.46418  0.18460  0.31468  1.0000
  H   H30       1.0  0.39586  0.12791  0.39394  1.0000
  H   H31       1.0  0.30744  0.82679  0.36527  1.0000
  H   H32       1.0  0.37664  0.87668  0.28593  1.0000
  P   P8        1.0  0.62326  0.52018  0.43731  1.0000
  O   O24       1.0  0.66232  0.76298  0.45043  1.0000
  P   P9        1.0  0.87674  0.97982  0.56269  1.0000
  O   O25       1.0  0.83768  0.73702  0.54957  1.0000
  O   O26       1.0  0.84575  0.25760  0.55508  1.0000
  O   O27       1.0  0.93042  0.98121  0.51960  1.0000
  O   O28       1.0  0.79562  0.33449  0.97131  1.0000
  O   O29       1.0  0.74325  0.89264  0.95223  1.0000
  O   O30       1.0  0.84033  0.83571  0.97861  1.0000
  P   P10       1.0  0.80552  0.03087  0.94854  1.0000
  C   C53       1.0  0.97100  0.93291  0.75006  1.0000
  C   C54       1.0  0.90140  0.95388  0.61993  1.0000
  C   C55       1.0  0.87909  0.11817  0.65950  1.0000
  C   C56       1.0  0.90168  0.11013  0.70155  1.0000
  C   C57       1.0  0.94782  0.94130  0.70429  1.0000
  C   C58       1.0  0.97021  0.78226  0.66360  1.0000
  C   C59       1.0  0.94680  0.78528  0.62220  1.0000
  C   C60       1.0  0.92708  0.96239  0.79636  1.0000
  C   C61       1.0  0.93010  0.17765  0.82622  1.0000
  H   H33       1.0  0.84468  0.25380  0.65765  1.0000
  H   H34       1.0  0.88370  0.23984  0.73159  1.0000
  H   H35       1.0  0.00703  0.66248  0.66272  1.0000
  H   H36       1.0  0.96541  0.66216  0.59122  1.0000
  C   C62       1.0  0.88078  0.78727  0.80941  1.0000
  C   C63       1.0  0.84102  0.81789  0.85408  1.0000
  C   C64       1.0  0.89078  0.20946  0.87058  1.0000
  H   H37       1.0  0.87664  0.62332  0.78593  1.0000
  H   H38       1.0  0.96418  0.31540  0.81468  1.0000
  C   C65       1.0  0.84660  0.02745  0.88511  1.0000
  H   H39       1.0  0.80744  0.67321  0.86527  1.0000
  H   H40       1.0  0.89586  0.37209  0.89394  1.0000
  H   H41       1.0  0.15532  0.25380  0.84235  1.0000
  P   P11       1.0  0.12326  0.97982  0.93731  1.0000
  O   O31       1.0  0.16232  0.73702  0.95043  1.0000
  O   O32       1.0  0.15425  0.25760  0.94492  1.0000
  O   O33       1.0  0.06958  0.98121  0.98040  1.0000
  O   O34       1.0  0.20438  0.33449  0.52869  1.0000
  O   O35       1.0  0.25675  0.89264  0.54777  1.0000
  O   O36       1.0  0.15967  0.83571  0.52139  1.0000
  P   P12       1.0  0.19448  0.03087  0.55146  1.0000
  C   C66       1.0  0.02900  0.93291  0.74994  1.0000
  C   C67       1.0  0.09860  0.95388  0.88007  1.0000
  C   C68       1.0  0.12091  0.11817  0.84050  1.0000
  C   C69       1.0  0.09832  0.11013  0.79845  1.0000
  C   C70       1.0  0.05218  0.94130  0.79571  1.0000
  C   C71       1.0  0.02979  0.78226  0.83640  1.0000
  C   C72       1.0  0.05320  0.78528  0.87780  1.0000
  C   C73       1.0  0.07292  0.96239  0.70364  1.0000
  C   C74       1.0  0.06990  0.17765  0.67378  1.0000
  C   C75       1.0  0.10922  0.20946  0.62942  1.0000
  H   H42       1.0  0.11630  0.23984  0.76841  1.0000
  C   C76       1.0  0.15898  0.81789  0.64592  1.0000
  C   C77       1.0  0.11922  0.78727  0.69059  1.0000
  H   H43       1.0  0.03582  0.31540  0.68532  1.0000
  H   H44       1.0  0.99297  0.66248  0.83728  1.0000
  C   C78       1.0  0.15340  0.02745  0.61489  1.0000
  H   H45       1.0  0.12336  0.62332  0.71407  1.0000
  H   H46       1.0  0.10414  0.37209  0.60606  1.0000
  H   H47       1.0  0.19256  0.67321  0.63473  1.0000
  H   H48       1.0  0.03459  0.66216  0.90878  1.0000
  P   P13       1.0  0.12326  0.02018  0.43731  1.0000
  O   O37       1.0  0.16232  0.26298  0.45043  1.0000
  O   O38       1.0  0.15425  0.74240  0.44492  1.0000
  O   O39       1.0  0.06958  0.01879  0.48040  1.0000
  O   O40       1.0  0.20438  0.66551  0.02869  1.0000
  O   O41       1.0  0.25675  0.10736  0.04777  1.0000
  O   O42       1.0  0.15967  0.16429  0.02139  1.0000
  P   P14       1.0  0.19448  0.96913  0.05146  1.0000
  C   C79       1.0  0.02900  0.06709  0.24994  1.0000
  C   C80       1.0  0.09860  0.04612  0.38007  1.0000
  C   C81       1.0  0.12091  0.88183  0.34050  1.0000
  C   C82       1.0  0.09832  0.88987  0.29845  1.0000
  C   C83       1.0  0.05218  0.05870  0.29571  1.0000
  C   C84       1.0  0.02979  0.21774  0.33640  1.0000
  C   C85       1.0  0.05320  0.21472  0.37780  1.0000
  C   C86       1.0  0.07292  0.03761  0.20364  1.0000
  C   C87       1.0  0.06990  0.82235  0.17378  1.0000
  C   C88       1.0  0.10922  0.79054  0.12942  1.0000
  C   C89       1.0  0.15340  0.97255  0.11489  1.0000
  C   C90       1.0  0.15898  0.18211  0.14592  1.0000
  C   C91       1.0  0.11922  0.21273  0.19059  1.0000
  H   H49       1.0  0.15532  0.74620  0.34235  1.0000
  H   H50       1.0  0.11630  0.76016  0.26841  1.0000
  H   H51       1.0  0.99297  0.33752  0.33728  1.0000
  H   H52       1.0  0.03459  0.33784  0.40878  1.0000
  H   H53       1.0  0.03582  0.68460  0.18532  1.0000
  H   H54       1.0  0.10414  0.62791  0.10606  1.0000
  H   H55       1.0  0.19256  0.32679  0.13473  1.0000
  H   H56       1.0  0.12336  0.37668  0.21407  1.0000
  P   P15       1.0  0.87674  0.02018  0.06269  1.0000
  O   O43       1.0  0.83768  0.26298  0.04957  1.0000
  O   O44       1.0  0.84575  0.74240  0.05508  1.0000
  O   O45       1.0  0.93042  0.01879  0.01960  1.0000
  O   O46       1.0  0.79562  0.66551  0.47131  1.0000
  O   O47       1.0  0.74325  0.10736  0.45223  1.0000
  O   O48       1.0  0.84033  0.16429  0.47861  1.0000
  P   P16       1.0  0.80552  0.96913  0.44854  1.0000
  C   C92       1.0  0.97100  0.06709  0.25006  1.0000
  C   C93       1.0  0.90140  0.04612  0.11993  1.0000
  C   C94       1.0  0.87909  0.88183  0.15950  1.0000
  C   C95       1.0  0.90168  0.88987  0.20155  1.0000
  C   C96       1.0  0.94782  0.05870  0.20429  1.0000
  C   C97       1.0  0.97021  0.21774  0.16360  1.0000
  C   C98       1.0  0.94680  0.21472  0.12220  1.0000
  C   C99       1.0  0.92708  0.03761  0.29636  1.0000
  C   C100      1.0  0.93010  0.82235  0.32622  1.0000
  C   C101      1.0  0.89078  0.79054  0.37058  1.0000
  C   C102      1.0  0.84660  0.97255  0.38511  1.0000
  C   C103      1.0  0.84102  0.18211  0.35408  1.0000
  C   C104      1.0  0.88078  0.21273  0.30941  1.0000
  H   H57       1.0  0.84468  0.74620  0.15765  1.0000
  H   H58       1.0  0.88370  0.76016  0.23159  1.0000
  H   H59       1.0  0.00703  0.33752  0.16272  1.0000
  H   H60       1.0  0.96541  0.33784  0.09122  1.0000
  H   H61       1.0  0.96418  0.68460  0.31468  1.0000
  H   H62       1.0  0.89586  0.62791  0.39394  1.0000
  H   H63       1.0  0.80744  0.32679  0.36527  1.0000
  H   H64       1.0  0.87664  0.37668  0.28593  1.0000
  Ga  Ga1       1.0  0.32760  0.97167  0.51421  1.0000
  Ga  Ga2       1.0  0.82760  0.52833  0.01421  1.0000
  Ga  Ga3       1.0  0.32760  0.02833  0.01421  1.0000
  Ga  Ga4       1.0  0.17240  0.52833  0.48579  1.0000
  Ga  Ga5       1.0  0.67240  0.02833  0.48579  1.0000
  Ga  Ga6       1.0  0.17240  0.47167  0.98579  1.0000
  Ga  Ga7       1.0  0.67240  0.97167  0.98579  1.0000
  Ga  Ga8       1.0  0.82760  0.47167  0.51421  1.0000
