data_image0
_chemical_formula_structural       PO6PC9H4C3H2CH2PO6PC10H2C2H4CH2O5PC13H8PO6PC13H8POPO6PC9H4C3H2CH2PO6PC10H2C2H4CH2PO6PC13H8PO6PC13H8Fe8
_chemical_formula_sum              "P16 O48 C104 H64 Fe8"
_cell_length_a       22.55
_cell_length_b       5.2256
_cell_length_c       29.039
_cell_angle_alpha    90
_cell_angle_beta     78.153
_cell_angle_gamma    90

_space_group_name_H-M_alt    "P 1"
_space_group_IT_number       1

loop_
  _space_group_symop_operation_xyz
  'x, y, z'

loop_
  _atom_site_type_symbol
  _atom_site_label
  _atom_site_symmetry_multiplicity
  _atom_site_fract_x
  _atom_site_fract_y
  _atom_site_fract_z
  _atom_site_occupancy
  P   P1        1.0  0.30794  0.45138  0.45256  1.0000
  O   O1        1.0  0.30332  0.11585  0.46420  1.0000
  O   O2        1.0  0.23674  0.46326  0.43662  1.0000
  O   O3        1.0  0.29530  0.62822  0.50586  1.0000
  O   O4        1.0  0.27485  0.52363  0.09771  1.0000
  O   O5        1.0  0.37017  0.20396  0.06498  1.0000
  O   O6        1.0  0.37618  0.71399  0.02603  1.0000
  P   P2        1.0  0.35273  0.53042  0.07855  1.0000
  C   C1        1.0  0.46889  0.63627  0.25220  1.0000
  C   C2        1.0  0.35552  0.52650  0.39218  1.0000
  C   C3        1.0  0.35427  0.35385  0.35522  1.0000
  C   C4        1.0  0.38850  0.39584  0.30957  1.0000
  C   C5        1.0  0.42634  0.61046  0.29942  1.0000
  C   C6        1.0  0.42474  0.79080  0.33529  1.0000
  C   C7        1.0  0.38794  0.75489  0.38017  1.0000
  C   C8        1.0  0.44112  0.62265  0.20968  1.0000
  C   C9        1.0  0.45660  0.42206  0.17766  1.0000
  H   H1        1.0  0.32648  0.18467  0.36152  1.0000
  H   H2        1.0  0.38732  0.25468  0.28266  1.0000
  H   H3        1.0  0.45128  0.96182  0.32831  1.0000
  H   H4        1.0  0.38342  0.91338  0.40371  1.0000
  C   C10       1.0  0.39870  0.80505  0.20108  1.0000
  C   C11       1.0  0.37383  0.78884  0.16044  1.0000
  C   C12       1.0  0.43348  0.40934  0.13682  1.0000
  H   H5        1.0  0.38465  0.95863  0.22574  1.0000
  H   H6        1.0  0.48640  0.27372  0.18474  1.0000
  C   C13       1.0  0.39149  0.59080  0.12789  1.0000
  H   H7        1.0  0.34011  0.92663  0.15494  1.0000
  H   H8        1.0  0.44732  0.25138  0.11299  1.0000
  P   P3        1.0  0.69206  0.45138  0.04744  1.0000
  O   O7        1.0  0.69668  0.11585  0.03580  1.0000
  O   O8        1.0  0.76326  0.46326  0.06338  1.0000
  O   O9        1.0  0.70470  0.62822  0.99414  1.0000
  O   O10       1.0  0.72515  0.52363  0.40229  1.0000
  O   O11       1.0  0.62983  0.20396  0.43502  1.0000
  O   O12       1.0  0.62382  0.71399  0.47397  1.0000
  P   P4        1.0  0.64727  0.53042  0.42145  1.0000
  C   C14       1.0  0.53111  0.63627  0.24780  1.0000
  C   C15       1.0  0.64448  0.52650  0.10782  1.0000
  C   C16       1.0  0.64573  0.35385  0.14478  1.0000
  C   C17       1.0  0.61150  0.39584  0.19043  1.0000
  C   C18       1.0  0.57366  0.61046  0.20058  1.0000
  C   C19       1.0  0.57526  0.79080  0.16471  1.0000
  C   C20       1.0  0.61206  0.75489  0.11983  1.0000
  C   C21       1.0  0.55888  0.62265  0.29032  1.0000
  C   C22       1.0  0.54340  0.42206  0.32234  1.0000
  C   C23       1.0  0.56652  0.40934  0.36318  1.0000
  H   H9        1.0  0.61268  0.25468  0.21734  1.0000
  H   H10       1.0  0.54872  0.96182  0.17169  1.0000
  C   C24       1.0  0.60130  0.80505  0.29892  1.0000
  C   C25       1.0  0.62617  0.78884  0.33956  1.0000
  H   H11       1.0  0.51360  0.27372  0.31526  1.0000
  H   H12       1.0  0.67352  0.18467  0.13848  1.0000
  H   H13       1.0  0.61535  0.95863  0.27426  1.0000
  H   H14       1.0  0.61658  0.91338  0.09629  1.0000
  C   C26       1.0  0.60851  0.59080  0.37211  1.0000
  H   H15       1.0  0.65989  0.92663  0.34506  1.0000
  H   H16       1.0  0.55268  0.25138  0.38701  1.0000
  O   O13       1.0  0.76326  0.53674  0.56338  1.0000
  O   O14       1.0  0.70470  0.37178  0.49414  1.0000
  O   O15       1.0  0.72515  0.47637  0.90229  1.0000
  O   O16       1.0  0.62983  0.79604  0.93502  1.0000
  O   O17       1.0  0.62382  0.28601  0.97397  1.0000
  P   P5        1.0  0.64727  0.46958  0.92145  1.0000
  C   C27       1.0  0.53111  0.36373  0.74780  1.0000
  C   C28       1.0  0.64448  0.47350  0.60782  1.0000
  C   C29       1.0  0.64573  0.64615  0.64478  1.0000
  C   C30       1.0  0.61150  0.60416  0.69043  1.0000
  C   C31       1.0  0.57366  0.38954  0.70058  1.0000
  C   C32       1.0  0.57526  0.20920  0.66471  1.0000
  C   C33       1.0  0.61206  0.24511  0.61983  1.0000
  C   C34       1.0  0.55888  0.37735  0.79032  1.0000
  C   C35       1.0  0.54340  0.57794  0.82234  1.0000
  C   C36       1.0  0.56652  0.59066  0.86318  1.0000
  C   C37       1.0  0.60851  0.40920  0.87211  1.0000
  C   C38       1.0  0.62617  0.21116  0.83956  1.0000
  C   C39       1.0  0.60130  0.19495  0.79892  1.0000
  H   H17       1.0  0.67352  0.81533  0.63848  1.0000
  H   H18       1.0  0.61268  0.74532  0.71734  1.0000
  H   H19       1.0  0.54872  0.03818  0.67169  1.0000
  H   H20       1.0  0.61658  0.08662  0.59629  1.0000
  H   H21       1.0  0.51360  0.72628  0.81526  1.0000
  H   H22       1.0  0.55268  0.74862  0.88701  1.0000
  H   H23       1.0  0.65989  0.07337  0.84506  1.0000
  H   H24       1.0  0.61535  0.04137  0.77426  1.0000
  P   P6        1.0  0.30794  0.54862  0.95256  1.0000
  O   O18       1.0  0.30332  0.88415  0.96420  1.0000
  O   O19       1.0  0.23674  0.53674  0.93662  1.0000
  O   O20       1.0  0.29530  0.37178  0.00586  1.0000
  O   O21       1.0  0.27485  0.47637  0.59771  1.0000
  O   O22       1.0  0.37017  0.79604  0.56498  1.0000
  O   O23       1.0  0.37618  0.28601  0.52603  1.0000
  P   P7        1.0  0.35273  0.46958  0.57855  1.0000
  C   C40       1.0  0.46889  0.36373  0.75220  1.0000
  C   C41       1.0  0.35552  0.47350  0.89218  1.0000
  C   C42       1.0  0.35427  0.64615  0.85522  1.0000
  C   C43       1.0  0.38850  0.60416  0.80957  1.0000
  C   C44       1.0  0.42634  0.38954  0.79942  1.0000
  C   C45       1.0  0.42474  0.20920  0.83529  1.0000
  C   C46       1.0  0.38794  0.24511  0.88017  1.0000
  C   C47       1.0  0.44112  0.37735  0.70968  1.0000
  C   C48       1.0  0.45660  0.57794  0.67766  1.0000
  C   C49       1.0  0.43348  0.59066  0.63682  1.0000
  C   C50       1.0  0.39149  0.40920  0.62789  1.0000
  C   C51       1.0  0.37383  0.21116  0.66044  1.0000
  C   C52       1.0  0.39870  0.19495  0.70108  1.0000
  H   H25       1.0  0.32648  0.81533  0.86152  1.0000
  H   H26       1.0  0.38732  0.74532  0.78266  1.0000
  H   H27       1.0  0.45128  0.03818  0.82831  1.0000
  H   H28       1.0  0.38342  0.08662  0.90371  1.0000
  H   H29       1.0  0.48640  0.72628  0.68474  1.0000
  H   H30       1.0  0.44732  0.74862  0.61299  1.0000
  H   H31       1.0  0.34011  0.07337  0.65494  1.0000
  H   H32       1.0  0.38465  0.04137  0.72574  1.0000
  P   P8        1.0  0.69206  0.54862  0.54744  1.0000
  O   O24       1.0  0.69668  0.88415  0.53580  1.0000
  P   P9        1.0  0.80794  0.95138  0.45256  1.0000
  O   O25       1.0  0.80332  0.61585  0.46420  1.0000
  O   O26       1.0  0.73674  0.96326  0.43662  1.0000
  O   O27       1.0  0.79530  0.12822  0.50586  1.0000
  O   O28       1.0  0.77485  0.02363  0.09771  1.0000
  O   O29       1.0  0.87017  0.70396  0.06498  1.0000
  O   O30       1.0  0.87618  0.21399  0.02603  1.0000
  P   P10       1.0  0.85273  0.03042  0.07855  1.0000
  C   C53       1.0  0.96889  0.13627  0.25220  1.0000
  C   C54       1.0  0.85552  0.02650  0.39218  1.0000
  C   C55       1.0  0.85427  0.85385  0.35522  1.0000
  C   C56       1.0  0.88850  0.89584  0.30957  1.0000
  C   C57       1.0  0.92634  0.11046  0.29942  1.0000
  C   C58       1.0  0.92474  0.29080  0.33529  1.0000
  C   C59       1.0  0.88794  0.25489  0.38017  1.0000
  C   C60       1.0  0.94112  0.12265  0.20968  1.0000
  C   C61       1.0  0.95660  0.92206  0.17766  1.0000
  H   H33       1.0  0.82648  0.68467  0.36152  1.0000
  H   H34       1.0  0.88732  0.75468  0.28266  1.0000
  H   H35       1.0  0.95128  0.46182  0.32831  1.0000
  H   H36       1.0  0.88342  0.41338  0.40371  1.0000
  C   C62       1.0  0.89870  0.30505  0.20108  1.0000
  C   C63       1.0  0.87383  0.28884  0.16044  1.0000
  C   C64       1.0  0.93348  0.90934  0.13682  1.0000
  H   H37       1.0  0.88465  0.45863  0.22574  1.0000
  H   H38       1.0  0.98640  0.77372  0.18474  1.0000
  C   C65       1.0  0.89149  0.09080  0.12789  1.0000
  H   H39       1.0  0.84011  0.42663  0.15494  1.0000
  H   H40       1.0  0.94732  0.75138  0.11299  1.0000
  P   P11       1.0  0.19206  0.95138  0.04744  1.0000
  O   O31       1.0  0.19668  0.61585  0.03580  1.0000
  O   O32       1.0  0.26326  0.96326  0.06338  1.0000
  O   O33       1.0  0.20470  0.12822  0.99414  1.0000
  O   O34       1.0  0.22515  0.02363  0.40229  1.0000
  O   O35       1.0  0.12983  0.70396  0.43502  1.0000
  O   O36       1.0  0.12382  0.21399  0.47397  1.0000
  P   P12       1.0  0.14727  0.03042  0.42145  1.0000
  C   C66       1.0  0.03111  0.13627  0.24780  1.0000
  C   C67       1.0  0.14448  0.02650  0.10782  1.0000
  C   C68       1.0  0.14573  0.85385  0.14478  1.0000
  C   C69       1.0  0.11150  0.89584  0.19043  1.0000
  C   C70       1.0  0.07366  0.11046  0.20058  1.0000
  C   C71       1.0  0.07526  0.29080  0.16471  1.0000
  C   C72       1.0  0.11206  0.25489  0.11983  1.0000
  C   C73       1.0  0.05888  0.12265  0.29032  1.0000
  C   C74       1.0  0.04340  0.92206  0.32234  1.0000
  C   C75       1.0  0.06652  0.90934  0.36318  1.0000
  H   H41       1.0  0.11268  0.75468  0.21734  1.0000
  H   H42       1.0  0.04872  0.46182  0.17169  1.0000
  C   C76       1.0  0.10130  0.30505  0.29892  1.0000
  C   C77       1.0  0.12617  0.28884  0.33956  1.0000
  H   H43       1.0  0.01360  0.77372  0.31526  1.0000
  H   H44       1.0  0.17352  0.68467  0.13848  1.0000
  H   H45       1.0  0.11535  0.45863  0.27426  1.0000
  H   H46       1.0  0.11658  0.41338  0.09629  1.0000
  C   C78       1.0  0.10851  0.09080  0.37211  1.0000
  H   H47       1.0  0.15989  0.42663  0.34506  1.0000
  H   H48       1.0  0.05268  0.75138  0.38701  1.0000
  P   P13       1.0  0.19206  0.04862  0.54744  1.0000
  O   O37       1.0  0.19668  0.38415  0.53580  1.0000
  O   O38       1.0  0.26326  0.03674  0.56338  1.0000
  O   O39       1.0  0.20470  0.87178  0.49414  1.0000
  O   O40       1.0  0.22515  0.97637  0.90229  1.0000
  O   O41       1.0  0.12983  0.29604  0.93502  1.0000
  O   O42       1.0  0.12382  0.78601  0.97397  1.0000
  P   P14       1.0  0.14727  0.96958  0.92145  1.0000
  C   C79       1.0  0.03111  0.86373  0.74780  1.0000
  C   C80       1.0  0.14448  0.97350  0.60782  1.0000
  C   C81       1.0  0.14573  0.14615  0.64478  1.0000
  C   C82       1.0  0.11150  0.10416  0.69043  1.0000
  C   C83       1.0  0.07366  0.88954  0.70058  1.0000
  C   C84       1.0  0.07526  0.70920  0.66471  1.0000
  C   C85       1.0  0.11206  0.74511  0.61983  1.0000
  C   C86       1.0  0.05888  0.87735  0.79032  1.0000
  C   C87       1.0  0.04340  0.07794  0.82234  1.0000
  C   C88       1.0  0.06652  0.09066  0.86318  1.0000
  C   C89       1.0  0.10851  0.90920  0.87211  1.0000
  C   C90       1.0  0.12617  0.71116  0.83956  1.0000
  C   C91       1.0  0.10130  0.69495  0.79892  1.0000
  H   H49       1.0  0.17352  0.31533  0.63848  1.0000
  H   H50       1.0  0.11268  0.24532  0.71734  1.0000
  H   H51       1.0  0.04872  0.53818  0.67169  1.0000
  H   H52       1.0  0.11658  0.58662  0.59629  1.0000
  H   H53       1.0  0.01360  0.22628  0.81526  1.0000
  H   H54       1.0  0.05268  0.24862  0.88701  1.0000
  H   H55       1.0  0.15989  0.57337  0.84506  1.0000
  H   H56       1.0  0.11535  0.54137  0.77426  1.0000
  P   P15       1.0  0.80794  0.04862  0.95256  1.0000
  O   O43       1.0  0.80332  0.38415  0.96420  1.0000
  O   O44       1.0  0.73674  0.03674  0.93662  1.0000
  O   O45       1.0  0.79530  0.87178  0.00586  1.0000
  O   O46       1.0  0.77485  0.97637  0.59771  1.0000
  O   O47       1.0  0.87017  0.29604  0.56498  1.0000
  O   O48       1.0  0.87618  0.78601  0.52603  1.0000
  P   P16       1.0  0.85273  0.96958  0.57855  1.0000
  C   C92       1.0  0.96889  0.86373  0.75220  1.0000
  C   C93       1.0  0.85552  0.97350  0.89218  1.0000
  C   C94       1.0  0.85427  0.14615  0.85522  1.0000
  C   C95       1.0  0.88850  0.10416  0.80957  1.0000
  C   C96       1.0  0.92634  0.88954  0.79942  1.0000
  C   C97       1.0  0.92474  0.70920  0.83529  1.0000
  C   C98       1.0  0.88794  0.74511  0.88017  1.0000
  C   C99       1.0  0.94112  0.87735  0.70968  1.0000
  C   C100      1.0  0.95660  0.07794  0.67766  1.0000
  C   C101      1.0  0.93348  0.09066  0.63682  1.0000
  C   C102      1.0  0.89149  0.90920  0.62789  1.0000
  C   C103      1.0  0.87383  0.71116  0.66044  1.0000
  C   C104      1.0  0.89870  0.69495  0.70108  1.0000
  H   H57       1.0  0.82648  0.31533  0.86152  1.0000
  H   H58       1.0  0.88732  0.24532  0.78266  1.0000
  H   H59       1.0  0.95128  0.53818  0.82831  1.0000
  H   H60       1.0  0.88342  0.58662  0.90371  1.0000
  H   H61       1.0  0.98640  0.22628  0.68474  1.0000
  H   H62       1.0  0.94732  0.24862  0.61299  1.0000
  H   H63       1.0  0.84011  0.57337  0.65494  1.0000
  H   H64       1.0  0.88465  0.54137  0.72574  1.0000
  Fe  Fe1       1.0  0.33520  0.04396  0.01593  1.0000
  Fe  Fe2       1.0  0.83520  0.45604  0.51593  1.0000
  Fe  Fe3       1.0  0.33520  0.95604  0.51593  1.0000
  Fe  Fe4       1.0  0.16480  0.45604  0.98407  1.0000
  Fe  Fe5       1.0  0.66480  0.95604  0.98407  1.0000
  Fe  Fe6       1.0  0.16480  0.54396  0.48407  1.0000
  Fe  Fe7       1.0  0.66480  0.04396  0.48407  1.0000
  Fe  Fe8       1.0  0.83520  0.54396  0.01593  1.0000
